! generator: yaml2ck
! cantera-version: 3.0.1
! date: Mon, 23 Jun 2025 20:22:18 +0800
! input-files: ['H2_pNOX_15_94_TC.yaml']
!
! ---------------------------------------------------------------------------   CTI File converted from Solution Object
! ---------------------------------------------------------------------------

ELEM
H N O
END

SPECIES
H  H2  H2O  H2O2  HO2  N  N2  N2O  NH  NH2  NNH  NO  O  O2  OH
END

REACTIONS CAL/MOLE MOLE
H2 + M <=> 2 H + M       4.577000000000001e+19 -1.4 104400.0
H2/2.500E+00/ H2O/1.200E+01/
H2 + O <=> H + OH        50800.000000000015 2.67 6292.0
H2 + OH <=> H + H2O      43800000000000.01 0.0 6990.0
H + O2 <=> O + OH        114000000000000.02 0.0 15286.0
H + OH + M <=> H2O + M   3.5000000000000006e+22 -2.0 0.0
H2/7.300E-01/ H2O/3.650E+00/
H2O + O <=> 2 OH         67000000.000000015 1.704 14986.8
H + O + M <=> OH + M     4.714000000000001e+18 -1.0 0.0
H2/2.500E+00/ H2O/1.200E+01/
H2O2 (+M) <=> 2 OH (+M)  2000000000000.0 0.9 48749.0
LOW /2.4900000000000005e+24 -2.3 48749.0/
TROE /0.43 1E-30 1E+30/
H2/3.700E+00/ H2O/7.650E+00/ N2/1.500E+00/ O2/1.200E+00/
H + H2O2 <=> H2O + OH    24100000000000.004 0.0 3970.0
H2O2 + O <=> HO2 + OH    9550000.0 2.0 3970.0
H2O2 + OH <=> H2O + HO2  1740000000000.0002 0.0 318.0
DUPLICATE
H2O2 + OH <=> H2O + HO2  75900000000000.02 0.0 7269.0
DUPLICATE
H + HO2 <=> 2 OH         70790000000000.02 0.0 295.0
H + HO2 <=> H2 + O2      11402000000.000002 1.0827 553.78
HO2 + O <=> O2 + OH      32500000000000.004 0.0 0.0
HO2 + OH <=> H2O + O2    7000000000000.001 0.0 -1092.96
DUPLICATE
HO2 + OH <=> H2O + O2    450000000000000.06 0.0 10929.6
DUPLICATE
2 HO2 <=> H2O2 + O2      100000000000000.02 0.0 11040.88
DUPLICATE
2 HO2 <=> H2O2 + O2      190000000000.00003 0.0 -1408.925
DUPLICATE
H + O2 (+M) <=> HO2 (+M) 4650000000000.001 0.44 0.0
LOW /1.7370000000000004e+19 -1.23 0.0/
TROE /0.67 1E-30 1E+30 1E+30/
H2/1.300E+00/ H2O/1.000E+01/
O + OH + M <=> HO2 + M   1.0000000000000002e+16 0.0 0.0
H + NH2 <=> H2 + NH      40000000000000.01 0.0 3650.0
NH2 + O <=> NH + OH      6800000000000.001 0.0 0.0
NH2 + OH <=> H2O + NH    4000000.000000001 2.0 1000.0
N + NH2 <=> 2 H + N2     70000000000000.016 0.0 0.0
NH2 + NO <=> NNH + OH    6200000000000001.0 -1.15 2518.0
H + NH <=> H2 + N        30000000000000.004 0.0 0.0
NH + O <=> H + NO        92000000000000.02 0.0 0.0
NH + OH <=> H2O + N      500000000000.00006 0.5 2000.0
NH + OH <=> H2 + NO      20000000000000.004 0.0 0.0
NH + O2 <=> NO + OH      1300000.0000000002 1.5 100.0
NH + NO <=> N2 + OH      22000000000000.004 -0.23 0.0
N + OH <=> H + NO        38000000000000.01 0.0 0.0
N + O2 <=> NO + O        6400000000.000001 1.0 6280.0
N + NO <=> N2 + O        3300000000000.0005 0.3 0.0
NNH <=> H + N2           10000000.0 0.0 0.0
H + NNH <=> H2 + N2      100000000000000.02 0.0 0.0
NNH + O <=> H + N2O      190000000000000.03 -0.274 -22.0
NNH + O <=> NH + NO      520000000000.00006 0.388 -409.0
NNH + OH <=> H2O + N2    50000000000000.01 0.0 0.0
NNH + O2 <=> HO2 + N2    560000000000000.1 -0.385 -13.0
N2O (+M) <=> N2 + O (+M) 1300000000000.0 0.0 62570.0
LOW /400000000000000.06 0.0 56600.0/
H2O/1.200E+01/ N2/1.700E+00/ O2/1.400E+00/
H + N2O <=> N2 + OH      33000000000.000008 0.0 4729.0
DUPLICATE
H + N2O <=> N2 + OH      440000000000000.06 0.0 19254.0
DUPLICATE
NH + NO <=> H + N2O      319000000000000.06 -0.455 0.0
N2O + O <=> 2 NO         29000000000000.004 0.0 23150.0
N2O + O <=> N2 + O2      1400000000000.0002 0.0 10800.0
END
