ELEMENTS
N  H  O  C  
END

SPECIES
C12H23     O2       CO2      H2O     N2    
END

REACTIONS	
C12H23 + 17.75O2 =>12CO2 + 11.5H2O	3.0000e+11    0.000  40900.0
FORD / C12H23 0.45 /
FORD / O2  1.0 /
END