!-------------------------------------------------------
!  Authors: Yuxiang Zhu, Henry J. Curran, Chong-Wen Zhou*
!  Including:
!    - NH3 oxidation and related reactions
!    - NOx formation related reactions
!-------------------------------------------------------
ELEMENTS
C H O N Ar He
END
SPECIES
H2O             NH3             NO              N2O             N2              
O2              H2              NO2             AR              
HE              H               O               OH              
HO2             H2O2            OHV             NH2             
NH              N               N2H4            N2H3            N2H2            
H2NN            NNH             NO3             HNO             
HON             H2NO            HNOH            NH2OH           
HONO            HNO2            HONO2           t-ONNH          
c-ONNH          ONHN            H2NNO2          t-HNN(O)OH      c-HNN(O)OH      
CO              CO2             CH4             C2H6            
END
!---------------------------------------------------------------------------
!  
!---------------------------------------------------------------------------
REACTIONS
!---------------------------------------------------------------------------
!  H2/O2 subset
!---------------------------------------------------------------------------
H2+M<=>2H+M                            4.57700000E+19   -1.40000000E+00    1.04400000E+05 !\Author: AK !\Ref: TSANG AND HAMPSON, J. PHYS. CHEM. REF. DATA, 15 !\Comment: WARNING
C2H6/ 3.0/ CH4/ 2.0/ CO/ 1.9/ CO2/ 3.8/ H2/ 2.5/ H2O/ 12.0/ HE/ 0.83/ O2/ 0.0/
H2+O<=>H+OH                            3.65000000E+06    2.15065000E+00    7.38068955E+03 ! refit, 03/08/2023; H2 project rate constant at >1500 K & H2 project rate constant x 1.1 at 900-1200 K
 DUPLICATE
H2+O<=>H+OH                           -1.65000000E+41   -7.46129000E+00    4.32089365E+04
 DUPLICATE
H2+OH<=>H+H2O                          2.20000000E+08    1.51000000E+00    3.43000000E+03 !\Ref: J.V.MICHAEL SUTHERLAND, J.PHYS.CHEM. 92(1988) 3853 !\Comment: WARNING 
2H+O2<=>H2+O2                          8.80000000E+22   -1.83500000E+00    8.00000000E+02 !\Ref: Michael P. Burke & Stephen J. Klippenstein, Nature Chemistry volume 9, pages1078 1082 (2017) !\Comment: (Ref added, YM)
2H+O2<=>2OH                            4.00000000E+22   -1.83500000E+00    8.00000000E+02 !\Ref: Michael P. Burke & Stephen J. Klippenstein, Nature Chemistry volume 9, pages1078 1082 (2017) !\Comment: (Ref added, YM)
H+O+O2<=>OH+O2                         7.35000000E+22   -1.83500000E+00    8.00000000E+02 !\Ref: Michael P. Burke & Stephen J. Klippenstein, Nature Chemistry volume 9, pages1078 1082 (2017) !\Comment: (Ref added, YM)
H+OH+O2<=>H2O+O2                       2.56000000E+22   -1.83500000E+00    8.00000000E+02 !\Ref: Michael P. Burke & Stephen J. Klippenstein, Nature Chemistry volume 9, pages1078 1082 (2017) !\Comment: (Ref added, YM) 
2O+M<=>O2+M                            6.16500000E+15   -5.00000000E-01    0.00000000E+00 !\Author: AK !\Ref: TSANG AND HAMPSON, J. PHYS. CHEM. REF. DATA, 15 !\Comment: WARNING 
AR/ 0.83/ C2H6/ 3.0/ CH4/ 2.0/ CO/ 1.9/ CO2/ 3.8/ H2/ 2.5/ H2O/ 12.0/ HE/ 0.83/
H+O2<=>O+OH                            1.04000000E+14    0.00000000E+00    1.52860000E+04 !\Author: AK !\Ref: HONG ET AL. PROC. OF THE COMB. INST. 33(2011) 309?16 !\Comment: 2 PARAMETER FIT 
H+OH(+M)<=>H2O(+M)                     2.50000000E+13    2.34000000E-01   -1.14000000E+02 !\Author: ABS_TEST SP !\Ref: SELLEVAG, S. R.;J. PHYS. CHEM. A 2008, 112, 50855095 ! !\Comment: WARNING 
     LOW  /  4.53000000E+21  -1.81000000E+00  4.92000000E+02 /
     TROE/   7.30000000E-01  1.00000000E-30  1.00000000E+30  1.00000000E+30 /
AR/ 0.4/ H2/ 1.5/ H2O/ 13.0/ HE/ 0.57/ N2/ 1.0/ O2/ 1.0/
2OH<=>H2O+O                            2.88000000E+06    1.79000000E+00   -1.75000000E+03 !\Author: WARNING !\Ref: G. ALTINAY, J. PHYS. CHEM. A, 118(2014), PP. 38-54 !\Comment: WARNING 
H+O+M<=>OH+M                           4.71400000E+18   -1.00000000E+00    0.00000000E+00 !\Author: AK !\Ref: TSANG AND HAMPSON, J. PHYS. CHEM. REF. DATA, 15 !\Comment: WARNING 
AR/ 0.75/ C2H6/ 3.0/ CH4/ 2.0/ CO/ 1.5/ CO2/ 2.0/ H2/ 2.5/ H2O/ 12.0/ HE/ 0.75/ O2 /0.0/
H2O2(+M)<=>2OH(+M)                     2.00000000E+12    9.00000000E-01    4.87490000E+04 !\Author: UB !\Ref: TROE, COMBUST. FLAME, 158 !\Comment: RATE CONSTANT IS FOR N2, 
     LOW  /  2.35301800E+24  -2.29293580E+00  4.87434050E+04 /
     TROE/   4.30000000E-01  1.00000000E-30  1.00000000E+30 /
CO/ 2.4/ CO2/ 1.86/ H2/ 2.0/ H2O/ 9.0/ H2O2/ 9.9/ HE/ 0.88/ N2/ 1.5/ O2/ 1.5/
H+H2O2<=>H2O+OH                        2.41000000E+13    0.00000000E+00    3.97000000E+03 !\Author: AK !\Ref: TSANG AND HAMPSON, J. PHYS. CHEM. REF. DATA, 15 !\Comment: WARNING 
H+H2O2<=>H2+HO2                        1.65000000E+10    1.00000000E+00    6.00000000E+03 !\Author: WARNING !\Ref: WARNING !\Comment: Decrease by 25% PW 
H2O2+O<=>HO2+OH                        9.55000000E+06    2.00000000E+00    3.97000000E+03 !\Author: AK !\Ref: TSANG AND HAMPSON, J. PHYS. CHEM. REF. DATA, 15 !\Comment: WARNING 
H2O2+OH<=>H2O+HO2                      1.74000000E+12    0.00000000E+00    3.18000000E+02 !\Author: AK !\Ref: HONG ET AL. J. PHYS. CHEM. A 114(2010) 5718-5727 !\Comment: WARNING 
 DUPLICATE
H2O2+OH<=>H2O+HO2                      7.59000000E+13    0.00000000E+00    7.26900000E+03 !\Author: AK !\Ref: HONG ET AL. J. PHYS. CHEM. A 114(2010) 5718-5727 !\Comment: WARNING 
 DUPLICATE
H+HO2<=>H2+O2                          2.80000000E+06    2.09000000E+00   -1.45100000E+03 !\Author: WARNING !\Ref: WARNING !\Comment: WARNING 
H+HO2<=>2OH                            7.07900000E+13    0.00000000E+00    2.95000000E+02 !\Author: AK !\Ref: MUELLER ET AL., INT. J. CHEM. KINET. 31(10)(1999) 705724. !\Comment: WARNING 
HO2+O<=>O2+OH                          3.25000000E+13    0.00000000E+00    0.00000000E+00 !\Author: AK !\Ref: BAULCH ET AL., J. PHYS. CHEM. REF DATA, 21 !\Comment: WARNING 
HO2+OH<=>H2O+O2                        1.93000000E+20   -2.49000000E+00    5.84240000E+02 !\Author: UB !\Ref: M.P. BURKE, S.J. KLIPPENSTEIN, L.B. HARDING, PROC. COMBUST. INST. 34(2013) 547-555 !\Comment: WARNING 
 DUPLICATE
HO2+OH<=>H2O+O2                        1.21000000E+09    1.24000000E+00   -1.30758000E+03 !\Author: UB !\Ref: M.P. BURKE, S.J. KLIPPENSTEIN, L.B. HARDING, PROC. COMBUST. INST. 34(2013) 547-555 !\Comment: WARNING 
 DUPLICATE
2HO2<=>H2O2+O2                         1.93000000E-02    4.12000000E+00   -4.96000000E+03 !\Author: SP !\Ref: S.J. KLIPPENSTEIN, M.P. BURKE, K.P. SOMERS, 11th U.S. NAT.COMB.MEETING (2019) !\Comment: WARNING 
2HO2<=>O2+2OH                          6.41000000E+17   -1.54000000E+00    8.54000000E+03 !\Author: SP !\Ref: S.J. KLIPPENSTEIN, M.P. BURKE, K.P. SOMERS, 11th U.S. NAT.COMB.MEETING (2019) !\Comment: WARNING 
H+O2(+M)<=>HO2(+M)                     4.66000000E+12    4.40000000E-01    0.00000000E+00 !\Author: SP !\Ref: TROE _ 2000 / PCCP FERNANDES 2008
     LOW  /  4.06620000E+19  -1.40000000E+00  -1.80537000E+02 /                           !LPL 202210 new fit by Snehasish Panigrahy
     TROE/   5.00000000E-01  1.00000000E+00  1.00000000E+10  1.00000000E+30 /
AR/ 0.0/ CH4/ 2.0/ CO/ 4.0/ CO2/ 3.25/ H2/ 2.0/ H2O/ 17.6/ HE/ 0.57/ N2/ 0.0/ O2/ 1.0/
H+O2(+N2)<=>HO2(+N2)                   4.66000000E+12    4.40000000E-01    0.00000000E+00
     LOW  /  1.91000000E+20  -1.55680000E+00  2.53860000E+02 /                            !! YM 28 July 2023 H2 project recommended
     TROE/   5.00000000E-01  1.00000000E+00  1.00000000E+10  1.00000000E+30 /
H+O2+AR<=>HO2+AR                       2.90584000E+20   -1.66310000E+00    1.49349060E+03 !\Author: YM !\Ref: PLOG fitting 27 July 2023
PLOG /	1.00000000E-02					6.93702000E+18   -1.19120000E+00    1.14078000E+01 /
PLOG /	1.00000000E-01					6.77914000E+18   -1.18930000E+00    2.35054000E+01 /
PLOG /	1.00000000E+00					6.88521000E+18   -1.19250000E+00    6.13437000E+01 /
PLOG /	5.00000000E+00					8.11474000E+18   -1.21410000E+00    1.48419000E+02 /
PLOG /	1.00000000E+01					9.85241000E+18   -1.23890000E+00    2.28992900E+02 /
PLOG /	2.00000000E+01					1.37451000E+19   -1.28080000E+00    3.58970900E+02 /
PLOG /	3.00000000E+01					2.66805000E+20   -1.67880000E+00    6.10486200E+02 /
PLOG /	4.00000000E+01					3.88385000E+20   -1.72520000E+00    7.46275400E+02 /
PLOG /	5.00000000E+01					5.11621000E+20   -1.75890000E+00    8.57089000E+02 /
PLOG /	1.00000000E+02					8.71701000E+20   -1.81950000E+00    1.19198760E+03 /
PLOG /	3.00000000E+02					2.90584000E+20   -1.66310000E+00    1.49349060E+03 /
!---------------------------------------------------------------------------
!  Excited OH subset
!---------------------------------------------------------------------------
!! ADOPTED FROM T. Kathrotia et al. / Combustion and Flame 157 (2010) 1261–1273
H+O+M<=>OHV+M                          1.50000000E+13    0.00000000E+00    5.97514340E+03
AR/ 0.35/ H2O/ 6.5/ N2/ 0.4/ O2/ 0.4/
OHV<=>OH                               1.45000000E+06    0.00000000E+00    0.00000000E+00
O2+OHV<=>O2+OH                         2.10000000E+12    5.00000000E-01   -4.78011472E+02
H2O+OHV<=>H2O+OH                       5.93000000E+12    5.00000000E-01   -8.60420650E+02
H2+OHV<=>H2+OH                         2.95000000E+12    5.00000000E-01   -4.54110899E+02
N2+OHV<=>N2+OH                         1.08000000E+11    5.00000000E-01   -1.24282983E+03
OH+OHV<=>2OH                           6.01000000E+12    5.00000000E-01   -7.64818356E+02
H+OHV<=>H+OH                           1.31000000E+12    5.00000000E-01   -1.67304015E+02
AR+OHV<=>AR+OH                         1.69000000E+12    0.00000000E+00    4.13479924E+03
!! ADOPTED FROM W. Sun, Q. Zhao, H.J. Curran et al. Combustion and Flame 245 (2022) 112308
NO+OHV<=>NO+OH                         6.00000000E+12    5.00000000E-01   -3.97000000E+02 !\AUTHOR: SC !\REF:Clayton R.MulvihillEric L.Petersen. COMB & FLAME 2020, 213, 291-301 !\COMMENT:
NO2+OHV<=>NO2+OH                       6.00000000E+12    5.00000000E-01   -5.56000000E+02 !\AUTHOR: SC !\REF:Clayton R.MulvihillEric L.Petersen. COMB & FLAME 2020, 213, 291-301 !\COMMENT:
H+NO2<=>NO+OHV                         7.00000000E+13    0.00000000E+00    5.50000000E+04 !\AUTHOR: SC !\REF:Clayton R.MulvihillEric L.Petersen. COMB & FLAME 2020, 213, 291-301 !\COMMENT:
H+N2O<=>N2+OHV                         1.60000000E+14    0.00000000E+00    5.03000000E+04 !\AUTHOR: SC !\REF:Y. Hidaka, H. Takuma, M. Suga. J. Phys. Chem. 89 (1985) 4903-4905 !\COMMENT:
N2O+OHV<=>N2O+OH                       6.00000000E+12    5.00000000E-01   -5.56000000E+02 !\AUTHOR: SC !\REF:Clayton R.MulvihillEric L.Petersen. COMB & FLAME 2020, 213, 291-301 !\COMMENT:
NH3+OHV<=>NH3+OH                       9.00000000E+12    5.00000000E-01   -5.96000000E+02 !\AUTHOR: SC !\REF:Clayton R.MulvihillEric L.Petersen. COMB & FLAME 2020, 213, 291-301 !\COMMENT:
!---------------------------------------------------------------------------
!  NH3 subset
!---------------------------------------------------------------------------
NH3+M<=>H+NH2+M                        2.86000000E+16    0.00000000E+00    9.34700000E+04 !x1.3 Reference: D.F. Davidson, K. Kohse-Hoinghaus, A.Y. Chang, R.K. Hanson, A pyrolysis mechanism for ammonia, International Journal of Chemical Kinetics 22 (1990) 513-535.
H+NH3<=>H2+NH2                         2.89000000E+06    2.23000000E+00    1.04000000E+04 !T.L. Nguyen, J.F. Stanton, Ab initio thermal rate coefficients for H + NH3 = H2 + NH2, International Journal of Chemical Kinetics 51 (2019) 321-328.
NH3+O<=>NH2+OH                         9.33000000E+01    3.29000000E+00    3.67000000E+03 !(Adjusted) S.J. Klippenstein, L.B. Harding, B. Ruscic, R. Sivaramakrishnan, N.K. Srinivasan, M.-C. Su, J.V. Michael, J. Phys. Chem. A 113 (2009) 10241–10259.
NH3+OH<=>H2O+NH2                       1.09000000E+05    2.37000000E+00   -1.81000000E+02 !(Adjusted) Stagni, A. et al. React. Chem. Eng. doi:10.1039/C9RE00429G(2020).
HO2+NH3<=>H2O2+NH2                     1.17300000E+00    3.83900000E+00    1.72600000E+04 !Stagni, A. et al. React. Chem. Eng. doi:10.1039/C9RE00429G(2020).
NH3+NO2<=>HONO+NH2                     4.23561900E-10    6.48000000E+00    2.70076482E+04 !CIS & TRANS; S. Xu, M.C. Lin, Int J Chem Kinet 41: 667–677, 2009 
 DUPLICATE
NH3+NO2<=>HONO+NH2                     2.68375800E-01    4.02000000E+00    2.32504780E+04 !CIS & TRANS; S. Xu, M.C. Lin, Int J Chem Kinet 41: 667–677, 2009 
 DUPLICATE
NH3+NO2<=>HNO2+NH2                     2.45014000E+11    0.00000000E+00    2.50956023E+04 !Thaxton, A.G.; Hsu, C.C.; Lin, M.C. Int. J. Chem. Kinet. 29 245-251 (1997)
NH2+M<=>H+NH+M                         1.20000000E+15    0.00000000E+00    7.60027500E+04 !J. Deppe, Berichte der Bunsengesellschaft f  r physikalische Chemie 102 (1998) 1474-1485.
H+NH2<=>H2+NH                          1.09000000E+05    2.59000000E+00    1.81000000E+03 ! Y. Li, S.M. Sarathy, Int. J. Hydrogen Energy 45 (2020) 23624-23637.
NH2+O<=>NH+OH                          3.09000000E+03    2.84000000E+00   -2.78000000E+03 ! Klippenstein, S. J., Mulvihill, C. R., & Glarborg, P. (2023). Theoretical Kinetics Predictions for Reactions on the NH2O Potential Energy Surface. The Journal of Physical Chemistry A.
NH2+OH<=>H2O+NH                        3.30000000E+06    1.94900000E+00   -2.17000000E+02 !SJ Klippenstein LB Harding B Ruscic R Sivaramakrishnan NK Srinivasan M-C Su JV Michael JPCA 113 (2009) 10241-10259. 
2NH2<=>NH+NH3                          5.63600000E+00    3.53000000E+00    5.52600000E+02 !SJ Klippenstein LB Harding B Ruscic R Sivaramakrishnan NK Srinivasan M-C Su JV Michael JPCA 113 (2009) 10241-10259. 
2NH<=>N+NH2                            5.66000000E-01    3.88000000E+00    3.42000000E+02 !SJ Klippenstein LB Harding B Ruscic R Sivaramakrishnan NK Srinivasan M-C Su JV Michael JPCA 113 (2009) 10241-10259. 
NH2+O<=>H+HNO                          2.78000000E+13   -6.50000000E-02   -1.88000000E+02 ! Klippenstein, S. J., Mulvihill, C. R., & Glarborg, P. (2023). Theoretical Kinetics Predictions for Reactions on the NH2O Potential Energy Surface. The Journal of Physical Chemistry A.
NH2+O<=>H2+NO                          2.38000000E+12    1.12000000E-01   -3.47000000E+02 ! Klippenstein, S. J., Mulvihill, C. R., & Glarborg, P. (2023). Theoretical Kinetics Predictions for Reactions on the NH2O Potential Energy Surface. The Journal of Physical Chemistry A.
NH2+OH<=>H+H2NO                        6.38120000E+13    0.00000000E+00    1.84273423E+04 !Mousavipour, S.H. et al. J. Phys. Chem. A 113 12961-12971 (2009)
NH2+OH<=>H+HNOH                        6.38120000E+13    0.00000000E+00    3.13097514E+04 !CIS & TRANS; Mousavipour, S.H. et al. J. Phys. Chem. A 113 12961-12971 (2009)
 DUPLICATE
NH2+OH<=>H+HNOH                        4.99660000E+13    0.00000000E+00    2.58126195E+04 !CIS & TRANS; Mousavipour, S.H. et al. J. Phys. Chem. A 113 12961-12971 (2009)
 DUPLICATE
NH2+O2<=>HNO+OH                        2.90000000E-02    3.76400000E+00    1.81850000E+04 ! S.J. Klippenstein et al. / Combustion and Flame 158 (2011) 774–789
NH2+O2<=>H2NO+O                        3.00000000E+13    0.00000000E+00    2.98000000E+04 !x0.5 Henning (Wagner grp) 1995
HO2+NH2<=>NH3+O2                       6.04000000E+18   -1.91000000E+00    3.06000000E+02 !S.J. Klippenstein and P. Glarborg Combustion and Flame 236 (2022) 111787
 DUPLICATE
HO2+NH2<=>NH3+O2                       5.91000000E+07    1.59000000E+00   -1.37300000E+03
 DUPLICATE
HO2+NH2<=>H2NO+OH                      2.55000000E+12    1.66000000E-01   -9.38000000E+02 !x 2.5 S.J. Klippenstein and P. Glarborg Combustion and Flame 236 (2022) 111787
HO2+NH2<=>H2O+HNO                      2.19000000E+09    7.91000000E-01   -1.42800000E+03 !S.J. Klippenstein and P. Glarborg Combustion and Flame 236 (2022) 111787
NH2+NO<=>NNH+OH                        4.30000000E+10    2.94000000E-01   -8.66000000E+02 !S. Song R.K. Hanson C.T. Bowman D.M. Golden Int J Chem Kinet 33 715-721, 2001 (kT)
NH2+NO<=>H2O+N2                        2.60000000E+19   -2.36900000E+00    8.70000000E+02 !S. Song R.K. Hanson C.T. Bowman D.M. Golden Int J Chem Kinet 33 715-721, 2001 (kT)
NH2+NO2<=>H2NO+NO                      8.18000000E+11    3.20000000E-02   -1.51000000E+03 !x 0.9 Klippenstein et al., J. Phys. Chem. A 2013, 117, 9011−9022
NH2+NO2<=>H2O+N2O                      2.60000000E+18   -2.19000000E+00    4.55000000E+02 !Klippenstein et al., J. Phys. Chem. A 2013, 117, 9011−9022
NH+NH2<=>H+N2H2                        1.50000000E+15   -5.00000000E-01    0.00000000E+00 ! D.F. Davidson, K. Kohse-Hoinghaus, A.Y. Chang, R.K. Hanson, A pyrolysis mechanism for ammonia, International Journal of Chemical Kinetics 22 (1990) 513-535.
N+NH2=>2H+N2                           4.55000000E+13    0.00000000E+00    0.00000000E+00 !Ratio est. 65/35; Dransfeld, P., & Wagner, H. G. (1987). Investigation of the gas phase reaction N+ NH2→ N2+ 2H at room temperature. Zeitschrift für Physikalische Chemie, 153(1-2), 89-97.
N+NH2<=>H2+N2                          2.45000000E+13    0.00000000E+00    0.00000000E+00 !Ratio est. 65/35; Dransfeld, P., & Wagner, H. G. (1987). Investigation of the gas phase reaction N+ NH2→ N2+ 2H at room temperature. Zeitschrift für Physikalische Chemie, 153(1-2), 89-97.
2NH2<=>H2+N2H2                         1.74000000E+08    1.02000000E+00    1.17830000E+04 !SJ Klippenstein LB Harding B Ruscic R Sivaramakrishnan NK Srinivasan M-C Su JV Michael JPCA 113 (2009) 10241-10259. 
2NH2<=>H2+H2NN                         7.17000000E+04    1.88000000E+00    8.80200000E+03 !SJ Klippenstein LB Harding B Ruscic R Sivaramakrishnan NK Srinivasan M-C Su JV Michael JPCA 113 (2009) 10241-10259. 
NH2+NH3<=>H2+N2H3                      1.50000000E+13    0.00000000E+00    5.89000000E+04 ! Marshall, P., & Glarborg, P. (2023). The Journal of Physical Chemistry A, 127(11), 2601-2607.
NH+M<=>H+N+M                           1.80000000E+14    0.00000000E+00    7.47600000E+04 !J. Deppe, G. Friedrichs, A. Ibrahim, H.-J. Romming, H.G. Wagner, The Thermal Decomposition of NH2 and NH Radicals, Berichte der Bunsengesellschaft fur physikalische Chemie 102 (1998) 1474-1485.
H+NH<=>H2+N                            1.65000000E+11    7.10000000E-01    9.31000000E+02 !C.-X. Yao, P.-Y. Zhang, Z.-X. Duan, G.-J. Zhao, Theoretical Chemistry Accounts 133 (2014) 1489.
NH+O<=>N+OH                            2.07000000E+10    6.22000000E-01   -3.58000000E+02 !R. Guadagnini, G.C. Schatz, S.P. Walch, J. Chem. Phys. 102 (1995) 784-791. 
NH+OH<=>H2O+N                          2.61000000E+07    1.66000000E+00   -9.45000000E+02 ! Klippenstein, S. J., Mulvihill, C. R., & Glarborg, P. (2023). Theoretical Kinetics Predictions for Reactions on the NH2O Potential Energy Surface. The Journal of Physical Chemistry A.
NH+NH2<=>N+NH3                         9.57000000E+03    2.46000000E+00    1.07000000E+02 !SJ Klippenstein LB Harding B Ruscic R Sivaramakrishnan NK Srinivasan M-C Su JV Michael JPCA 113 (2009) 10241-10259.
NH+O<=>H+NO                            1.41000000E+14   -2.16030000E-01    4.63734300E+01 ! Li, A., Xie, C., Xie, D., & Guo, H. (2011). A global ab initio potential energy surface for HNO (a3A ″) and quantum mechanical studies of vibrational states and reaction dynamics. The Journal of chemical physics, 134(19).
NH+OH<=>H+HNO                          1.51000000E+14   -3.14000000E-01   -3.08000000E+02 ! Klippenstein, S. J., Mulvihill, C. R., & Glarborg, P. (2023). Theoretical Kinetics Predictions for Reactions on the NH2O Potential Energy Surface. The Journal of Physical Chemistry A.
NH+OH<=>H2+NO                          3.43000000E+13   -3.03000000E-01   -3.36000000E+02 ! Klippenstein, S. J., Mulvihill, C. R., & Glarborg, P. (2023). Theoretical Kinetics Predictions for Reactions on the NH2O Potential Energy Surface. The Journal of Physical Chemistry A.
NH+O2<=>HNO+O                          3.32000000E+09    1.03400000E+00    1.14200000E+04 !Elishav et al., Chem. Rev. 2020, 120, 5352−5436 // Fit
NH+O2<=>NO+OH                          4.50000000E+08    7.90000000E-01    1.19500000E+03 !Römming, H. J.; Wagner, H. G. A Kinetic Study of the Reactions of NH(X3Σ−) with O2 and No in the Temperature Range from 1200 to 2200 K. Symp. Combust., [Proc.] 1996, 26, 559−566.
2NH=>H2+N2                             6.26000000E+12   -3.60000000E-02   -1.60900000E+02 !SJ Klippenstein et al J Phys Chem A 113 10241-10259 (2009)
2NH=>2H+N2                             5.63400000E+13   -3.60000000E-02   -1.60900000E+02 !SJ Klippenstein et al J Phys Chem A 113 10241-10259 (2009)
N+NH<=>H+N2                            6.42000000E+11    5.10000000E-01    1.91000000E+01 !Caridade ETAL, J. Phys. Chem. A, 109, 2356 - 2363, 2005
NH+NO<=>H+N2O                          2.25000000E+15   -7.80000000E-01    2.00000000E+01 ! x 1/1.2; Baulch, D. L., Bowman, C. T., Cobos, C. J., Cox, R. A., Just, T., Kerr, J. A., ... & Warnatz, J. (2005). Journal of physical and chemical reference data, 34(3), 757-1397.
NH+NO<=>N2+OH                          6.80000000E+14   -7.80000000E-01    2.00000000E+01 ! Baulch, D. L., Bowman, C. T., Cobos, C. J., Cox, R. A., Just, T., Kerr, J. A., ... & Warnatz, J. (2005). Journal of physical and chemical reference data, 34(3), 757-1397.
NH+NO2<=>HNO+NO                        5.71839800E+12    0.00000000E+00    0.00000000E+00 !ratio 59-41
NH+NO2<=>N2O+OH                        3.97380200E+12    0.00000000E+00    0.00000000E+00 !ratio 59-41
N2+M<=>2N+M                            1.89000000E+18   -8.50000000E-01    2.24950000E+05 !P. Dagaut, F. Lecomte, S. Chevailler, M. Cathonnet, Experimental and Detailed Kinetic Modeling of Nitric Oxide Reduction by a Natural Gas Blend in Simulated Reburning Conditions, Combustion Science and Technology 139 (1998) 329-363.
H2O/ 16.25/
N+OH<=>H+NO                            1.85000000E+14   -3.09410000E-01    3.98725000E+00 ! Ge, M. H., Chu, T. S., & Han, K. L. (2008). An accurate quantum dynamics study of the N+ OH reaction. Journal of Theoretical and Computational Chemistry, 7(04), 607-613.
N+O2<=>NO+O                            5.84000000E+09    1.01000000E+00    6.20000000E+03 ! Baulch, D. L., Bowman, C. T., Cobos, C. J., Cox, R. A., Just, T., Kerr, J. A., ... & Warnatz, J. (2005). Journal of physical and chemical reference data, 34(3), 757-1397.
N+NO<=>N2+O                            7.03000000E+13   -5.05300000E-02    2.43378420E+02 ! Yuxiang; REFIT NIST
 DUPLICATE
N+NO<=>N2+O                           -6.55000000E+16   -1.04361000E+00    1.49101075E+03 ! Yuxiang; REFIT NIST
 DUPLICATE
2NH2(+M)<=>N2H4(+M)                    5.62000000E+14   -4.14000000E-01    6.56000000E+01 !SJK 2009 HPL
     LOW  /  4.13000000E+28  -3.41000000E+00  0.00000000E+00 /                            !ALTINAY 2015 LPL & TROE PARAMETERS
     TROE/   1.30000000E-01  1.00000000E-30  1.00000000E+30  1.00000000E+30 /
AR/ 0.59/ N2/ 1.0/ NH3/ 4.87/ O2/ 0.69/                                                   !P. Glarborg et al., J. Phys. Chem. A 125 (2021) 1505-1516
N2H4<=>H2+H2NN                                    1.0               0.0               0.0 !A. Dean, J. Bozzelli, Combustion Chemistry of Nitrogen, (2000).
PLOG / 1.00000000E-01                  4.00000000E+44   -9.85000000E+00    7.13530000E+04 /
PLOG / 1.00000000E+00                  5.30000000E+39   -8.35000000E+00    6.93070000E+04 /
PLOG / 1.00000000E+01                  2.50000000E+39   -8.19000000E+00    6.96640000E+04 /
H+N2H4<=>H2+N2H3                       2.76000000E+05    2.56000000E+00    1.22000000E+03 !N. Kanno, T. Kito, Theoretical study on the hydrogen abstraction reactions from hydrazine derivatives by H atom, International Journal of Chemical Kinetics 52 (2020) 548-555. 
N2H4+O<=>N2H3+OH                       4.50000000E+11    0.00000000E+00   -1.27000000E+03 !Vaghjiani 1996 data fitted
N2H4+OH<=>H2O+N2H3                     1.51000000E+08    1.64915000E+00   -1.50396476E+03 !Mai 2019 fitted
N2H4+O2<=>HO2+N2H3                     5.05000000E+12    0.00000000E+00    3.21000000E+04 !S. Asgharzade et al. / Computational and Theoretical Chemistry 1104 (2017) 47–55
N2H4+NH2<=>N2H3+NH3                    3.80000000E+01    3.44000000E+00   -5.74000000E+02 !GAO 2022
N2H4+NH<=>N2H3+NH2                     6.09000000E+01    3.61000000E+00    5.80783939E+03 !DANA ET AL., J. Phys. Chem. A 2019, 123, 4679−4692
N+N2H4<=>N2H3+NH                       1.00000000E+10    1.00000000E+00    2.00000000E+03 !A.A. Konnov, J. De Ruyck, Kinetic modeling of the decomposition and flames o
N2H4+NO<=>HNO+N2H3                     6.00000000E+01    3.16000000E+00    3.08450000E+04 !P. Raghunath and Y.H. Lin and M.C. Lin, Comp. Theor. Chem. 1046, 73-80, 2014
N2H4+NO2<=>HNO2+N2H3                   2.40000000E-02    4.14000000E+00    7.94600000E+03 !P. Raghunath and Y.H. Lin and M.C. Lin, Comp. Theor. Chem. 1046, 73-80, 2014
N2H4+NO2<=>HONO+N2H3                   8.20000000E+01    3.13000000E+00    8.86000000E+03 !P. Raghunath and Y.H. Lin and M.C. Lin, Comp. Theor. Chem. 1046, 73-80, 2014
N2H4+O<=>H2O+N2H2                      2.90000000E+11    0.00000000E+00   -1.27000000E+03 !Vaghjiani GL JPC 104:5479-5489 1996 // Vaghjiani GL JPCA 105:4682-4690 2001
H+N2H4<=>NH2+NH3                       2.40000000E+09    0.00000000E+00    3.10000000E+03 !A.A. Konnov, J. De Ruyck, Kinetic modeling of the decomposition and flames of hydrazine, Combustion and Flame 124 (2001) 106-126.
N2H3(+M)<=>NH+NH2(+M)                  1.47900000E+13   -1.79000000E-01    8.87480000E+04 ! Reverse rate constant from Klippenstein et al., Thermal Decompos
     LOW  /  3.34400000E+42  -6.53100000E+00  1.26211300E+05 /                            ! Journal of Physical Chemistry A, 2009, Vol. 113, pp. 10241-10259
     TROE/   6.06000000E-01  1.15583000E+05  9.18600000E+03  9.79220000E+03 /             !P. Diévart, L. Catoire, Contributions of Experimental Data Obtained in Concentrated Mixtures to Kinetic Studies: Application to Monomethylhydrazine Pyrolysis, The Journal of Physical Chemistry A 124 (2020) 6214-6236.
AR/ 1.0/ C2H6/ 4.5/ CH4/ 3.0/ H2/ 3.0/ HE/ 1.0/ NH3/ 3.0/
N2H3+M<=>H+N2H2+M                      3.54000000E+44   -7.92978000E+00    6.80611644E+04 !REFITTED TO DEAN 2000 PLOG
H+N2H3<=>H2+N2H2                       7.47600000E+03    2.79600000E+00    4.68000000E+03 !P. Diévart, L. Catoire, Contributions of Experimental Data Obtained in Concentr
H+N2H3<=>H2+H2NN                       6.24300000E+06    1.89000000E+00    2.47000000E+02 !P. Diévart, L. Catoire, Contributions of Experimental Data Obtained in Concentr
N2H3+O<=>N2H2+OH                       1.70000000E+08    1.50000000E+00   -6.46000000E+02 !Dean AM Bozzelli JW (Gardiner WC) Gas Phase Combustion Chemistry, Springer 2000
N2H3+OH<=>H2O+N2H2                     1.20000000E+06    2.00000000E+00   -1.19200000E+03 !Dean AM Bozzelli JW (Gardiner WC) Gas Phase Combustion Chemistry, Springer 2000
N2H3+OH<=>H2NN+H2O                     3.00000000E+13    0.00000000E+00    0.00000000E+00 !Dean AM Bozzelli JW (Gardiner WC) Gas Phase Combustion Chemistry, Springer 2000
HO2+N2H3<=>H2O2+N2H2                   2.80000000E+04    2.69000000E+00   -1.60000000E+03 !x2 Dean AM Bozzelli JW (Gardiner WC) Gas Phase Combustion Chemistry, Springer 2000
N2H3+NH<=>N2H2+NH2                     2.00000000E+13    0.00000000E+00    0.00000000E+00 !JIM MILLER ESTIMATED
N2H3+NH2<=>N2H2+NH3                    6.08000000E-01    3.57400000E+00    1.19000000E+03 !P. Diévart, L. Catoire, Contributions of Experimental Data Obtained in Concentrated Mixtures to Kinetic Studies: Application to Monomethylhydrazine Pyrolysis, The Journal of Physical Chemistry A 124 (2020) 6214-6236.
N2H3+NH2<=>H2NN+NH3                    3.10000000E+00    3.43000000E+00   -1.95984704E+03 !Dana 2019
H+N2H3<=>NH+NH3                        1.00000000E+11    0.00000000E+00    0.00000000E+00 !A.A. Konnov, J. De Ruyck, Kinetic modeling of the decomposition and flames of hydrazine, Combustion and Flame 124 (2001) 106-126.
N2H3+O<=>HNO+NH2                       3.00000000E+13    0.00000000E+00    0.00000000E+00 !Dean AM Bozzelli JW (Gardiner WC) Gas Phase Combustion Chemistry, Springer 2000
N2H3+O=>H+NH2+NO                       3.00000000E+13    0.00000000E+00    0.00000000E+00 !Dean AM Bozzelli JW (Gardiner WC) Gas Phase Combustion Chemistry, Springer 2000
N2H3+OH<=>HNO+NH3                      1.00000000E+12    0.00000000E+00    1.50000000E+04 !JIM MILLER ESTIMATED
HNOH+NH2<=>N2H3+OH                     1.00000000E+01    3.46000000E+00   -4.67000000E+02 !Dean AM Bozzelli JW (Gardiner WC) Gas Phase Combustion Chemistry, Springer 2000
H2NN<=>H+NNH                                      1.0               0.0               0.0 !\AUTHOR: AS !\REF: Dean AM Bozzelli JW (Gardiner WC) Gas Phase Combustion Chemistry, Springer 2000. !\COMMENT:
PLOG / 1.00000000E-01                  5.90000000E+32   -6.99000000E+00    5.17912000E+04 /
PLOG / 1.00000000E+00                  9.60000000E+35   -7.57000000E+00    5.48412000E+04 /
PLOG / 1.00000000E+01                  5.00000000E+36   -7.43000000E+00    5.72951000E+04 /
 DUPLICATE
H2NN<=>H+NNH                                      1.0               0.0               0.0 !\REF: Dean AM Bozzelli JW (Gardiner WC) Gas Phase Combustion Chemistry, Springer 2000. !\COMMENT:
PLOG / 1.00000000E-01                  7.20000000E+28   -7.77000000E+00    5.07579000E+04 /
PLOG / 1.00000000E+00                  3.20000000E+31   -6.22000000E+00    5.23177000E+04 /
PLOG / 1.00000000E+01                  5.10000000E+33   -6.52000000E+00    5.42153000E+04 /
 DUPLICATE