ELEMENTS
O H N C AR HE
END

SPECIES

AR      N2      H       H2      HE      AR
O       OH      H2O     HO2     H2O2    O2    OH*                                
N       NH      NH2     NH3     NNH     N2H2
N2H3    N2H4    H2NN    NO      N2O     NO2
HNO     HON     HONO    H2NO    HNOH    NH2OH
HNO2    HONO2   NO3     HNO3
CO      CO2     CH4     C2H6    !The four C1-C2 species are only defined as three-body colliders in this model

END


REACTIONS


!************************ H2/CO mechanism**************************************

!======================                                                                                                                                                      
!H2-O2 Chain Reactions                                                                                                                                                       
!======================                                                                                                                                                      
                                                                                                                                                                             
! Hong et al., Proc. Comb. Inst. 33:309-316 (2011)                                                                                                                           
H+O2 = O+OH                                 	1.04E+14   0.00  1.5286E+04                                                                                                    
                                                                                                                                                                             
! Baulch et al., J. Phys. Chem. Ref. Data, 21:411 (1992)                                                                                                                     
O+H2 = H+OH						3.818E+12  0.00  7.948E+03                                                                                                                             
   DUPLICATE                                                                                                                                                                 
O+H2 = H+OH						8.792E+14  0.00  1.917E+04                                                                                                                             
   DUPLICATE                                                                                                                                                                 
                                                                                                                                                                             
! Michael and Sutherland, J. Phys. Chem. 92:3853 (1988)                                                                                                                      
H2+OH = H2O+H						0.216E+09  1.51  0.343E+04                                                                                                                           
                                                                                                                                                                                                                                                                                                                                                         
! M. Sangwan, L. N. Krasnoperov, The Journal of Physical Chemistry A 116 (2012) 11817?1822.                                                                                  
OH+OH = O+H2O						1.35E+07   1.689  -1166.8                                                                                                                            
    DUPLICATE                                                                                                                                                                
OH+OH = O+H2O					      -2.697E+10   0.567  0.0                                                                                                                          
    DUPLICATE                                                                                                                                                                
                                                                                                                                                                             
!============================                                                                                                                                                
!H2-O2 Dissociation Reactions                                                                                                                                                
!============================                                                                                                                                                
                                                                                                                                                                             
! Tsang and Hampson, J. Phys. Chem. Ref. Data, 15:1087 (1986)                                                                                                                
H2+M = H+H+M						4.577E+19 -1.40  1.0438E+05                                                                                                                          
   H2/2.5/ H2O/12/                                                                                                                                                           
   CO/1.9/ CO2/3.8/                                                                                                                                                          
   AR/0.0/ HE/0.0/                                                                                                                                                           
! Tsang and Hampson, J. Phys. Chem. Ref. Data, 15:1087 (1986)                                                                                                                
H2+AR = H+H+AR                              	5.840E+18 -1.10  1.0438E+05                                                                                                    
H2+HE = H+H+HE                              	5.840E+18 -1.10  1.0438E+05                                                                                                    
                                                                                                                                                                             
! Tsang and Hampson, J. Phys. Chem. Ref. Data, 15:1087 (1986)                                                                                                                
O+O+M = O2+M                                	6.165E+15 -0.50  0.000E+00                                                                                                     
   H2/2.5/ H2O/12/                                                                                                                                                           
   AR/0.0/ HE/0.0/                                                                                                                                                           
   CO/1.9/ CO2/3.8/                                                                                                                                                          
                                                                                                                                                                             
! Tsang and Hampson, J. Phys. Chem. Ref. Data, 15:1087 (1986)                                                                                                                
O+O+AR = O2+AR                              	1.886E+13  0.00 -1.788E+03                                                                                                     
O+O+HE = O2+HE                              	1.886E+13  0.00 -1.788E+03                                                                                                     
                                                                                                                                                                             
! Tsang and Hampson, J. Phys. Chem. Ref. Data, 15:1087 (1986)                                                                                                                
O+H+M = OH+M                                	4.714E+18 -1.00  0.000E+00                                                                                                     
   H2/2.5/  H2O/12/                                                                                                                                                          
   AR/0.75/ HE/0.75/                                                                                                                                                         
   CO/1.9/  CO2/3.8/                                                                                                                                                         
                                                                                                                                                                             
! Srinivasan and Michael, Int. J. Chem. Kinetic. 38 (2006)                                                                                                                   
! Rate constant is for Ar with efficiencies from Michael et al., J. Phys. Chem. A, 106 (2002)                                                                                
H2O+M = H+OH+M                              	6.064E+27 -3.322 1.2079E+05                                                                                                    
   H2/3.0/  H2O/0.0/                                                                                                                                                         
   HE/1.10/ N2/2.00/                                                                                                                                                         
   O2/1.5/                                                                                                                                                                   
! Efficiencies for CO and CO2 taken from Li et al., Int. J. Chem. Kinet. 36:566-575 (2004)                                                                                   
   CO/1.9/ CO2/3.8/                                                                                                                                                          
                                                                                                                                                                             
! Srinivasan and Michael, Int. J. Chem. Kinetic. 38 (2006)                                                                                                                   
H2O+H2O = H+OH+H2O                          	1.006E+26 -2.44  1.2018E+05                                                                                                    
                                                                                                                                                                             
!=================================                                                                                                                                           
! Formation and consumption of HO2                                                                                                                                           
!=================================                                                                                                                                           
                                                                                                                                                                             
! High-pressure limit from Troe, Proc. Comb. Inst. 28:1463-1469 (2000)                                                                                                       
! Low-pressure  limit from Michael et al., J. Phys. Chem. A 106:5297-5313                                                                                                    
! Centering factors from Fernandes et al., Phys. Chem. Chem. Phys. 10:4313-4321 (2008)                                                                                       
!=================================================================================                                                                                           
! MAIN BATH GAS IS N2 (comment this reaction otherwise)                                                                                                                      
!                                                                                                                                                                            
H+O2(+M) = HO2(+M)                          	4.65084E+12  0.44  0.000E+00                                                                                                   
   LOW/6.366E+20 -1.72  5.248E+02/                                                                                                                                          
   TROE/0.5  1E-30  1E+30/                                                                                                                                                  
   H2/2.0/ H2O/14/ O2/0.78/ CO/1.9/ CO2/3.8/ AR/0.67/ HE/0.8/                                                                                                               

!=================================================================================                                                                                           
                                                                                                                                                                             
! Michael et al., Proc. Comb. Inst. 28:1471 (2000)                                                                                                                           
!HO2+H = H2+O2                                 	3.659E+06  2.09 -1.451E+03                                                                                                   
!Scaled by 0.75                                                                                                                                                              
HO2+H = H2+O2                                 	2.750E+06  2.09 -1.451E+03                                                                                                   
                                                                                                                                                                             
! Mueller et al., Int. J. Chem. Kinetic. 31:113 (1999)                                                                                                                       
HO2+H = OH+OH                               	7.079E+13  0.00  2.950E+02                                                                                                     
                                                                                                                                                                             
! Fernandez-Ramos and Varandas, J. Phys. Chem. A 106:4077-4083 (2002)                                                                                                        
!HO2+O = O2+OH                               	4.750E+10  1.00 -7.2393E+02                                                                                                    
!Scaled by 0.60                                                                                                                                                              
HO2+O = O2+OH                               	2.850E+10  1.00 -7.2393E+02                                                                                                    
                                                                                                                                                                             
! M. P. Burke, S. J. Klippenstein, L. B. Harding, Proceedings of the Combustion Institute 34 (2013) 547?55.                                                                  
HO2+OH = H2O+O2 				                1.93E20    -2.49  5.84E+02                                                                                                                           
    DUPLICATE                                                                                                                                                                
HO2+OH = H2O+O2 			                    1.21E+09   1.24   -1.31E+03                                                                                                                     
    DUPLICATE                                                                                                                                                                
               
!M. Burke, S. Klippenstein, Nature Chemistry, 9, 1078-1082 (2017)
H+O2+H = H2+O2                                  8.80E+22   -1.835  800
H+O2+H = OH+OH                                  4.00E+22   -1.835  800
H+O2+O = OH+O2                                  7.35E+22   -1.835  800
H+O2+OH = H2O+O2                                2.56E+22   -1.835  800
			   
!=====================================                                                                                                                                       
!Formation and Consumption of H2O2                                                                                                                                           
!=====================================                                                                                                                                       

! D. D. Y. Zhou, K. Han, P. Zhang, L. B. Harding, M. J. Davis, R. T. Skodje, The Journal of Physical Chemistry A 116 (2012) 2089?100.                                        
HO2+HO2 = H2O2+O2                           	1.179E+9   0.7712  -1825                                                                                                       
   DUPLICATE                                                                                                                                                                 
HO2+HO2 = H2O2+O2        			1.251E+12  0.295   7397                   	                                                                                                   
   DUPLICATE                                                                                                                                                                 
                                                                                                                                                                             
! Troe, Combust. Flame,  158:594-601 (2011)                                                                                                                                  
! Rate constant is for Ar                                                                                                                                                    
H2O2(+M) = OH+OH(+M)            			2.00E+12   0.90  4.8749E+04                                                                                                            
   LOW/2.49E+24 -2.30 4.8749E+04/                                                                                                                                            
   TROE/0.43 1E-30 1E+30/                                                                                                                                                    
   H2O/7.5/ CO2/1.6/                                                                                                                                                         
   N2/1.5/  O2/1.2/                                                                                                                                                          
   HE/0.65/ H2O2/7.7/                                                                                                                                                        
! Efficiencies for H2 and CO taken from Li et al., Int. J. Chem. Kinet. 36:566-575 (2004)                                                                                    
   H2/3.7/ CO/2.8/                                                                                                                                                           
                                                                                                                                                                             
! Tsang and Hampson, J. Phys. Chem. Ref. Data, 15:1087 (1986)                                                                                                                
H2O2+H = H2O+OH                             	2.410E+13  0.00  3.970E+03                                                                                                     
H2O2+H = HO2+H2                             	4.820E+13  0.00  7.950E+03                                                                                                     
H2O2+O = OH+HO2                             	9.550E+06  2.00  3.970E+03                                                                                                     
                                                                                                                                                                             
! Hong et al., J. Phys. Chem. A  114 (2010) 5718?727                                                                                                                         
H2O2+OH = HO2+H2O                           	1.740E+12  0.00  3.180E+02                                                                                                     
   DUPLICATE                                                                                                                                                                 
H2O2+OH = HO2+H2O                           	7.590E+13  0.00  7.270E+03                                                                                                     
   DUPLICATE                                                                                                                                                                 


!!***********************************THE REACTIONS OF NH3***********************************
!-----------------------N/N2 REACTIONS-----------------------------------------
!------------------------------------------------------------------------------
 N2+M=N+N+M                                      1.890E+18   -0.85   2.250E+05 ! Lamoureux 2016
 H2O/16.25/ CO/1.875/ CO2/3.75/ CH4/16.25/ C2H6/16.25/                         !
 N+O+M=NO+M                                      7.600E+14   -0.10  -1.770E+03 ! Lamoureux 2016
 H2O/16.25/ CO/1.875/ CO2/3.75/ CH4/16.25/ C2H6/16.25/                         !
 N+NO2=N2O+O                                     1.800E+12   0.00    0.000E+00 ! Lamoureux 2016
 N+O2=NO+O                                       5.841E+09   1.01    6.202E+03 ! Baulch 2005 A/6.400E+09 error (+/-0.2-0.5) 280-1500 K also used by Lamoureux 2016/Vandooren 1994 
 N+OH=NO+H                                       1.084E+14  -0.20    0.000E+00 ! Baulch 2005 A/1.084E+14 error (+/-0.1-0.4) 100-2500 K
 N+NO=N2+O                                       3.200E+13   0.00    0.000E+00 ! Baulch 2005 A/2.100E+13 error (+/-0.3) 210-3700 K also used by Tian 2009/KLIMIC2011
!------------------------------------------------------------------------------
!---------------NH REACTIONS---------------------------------------------------!
!------------------------------------------------------------------------------
 NH+H=N+H2                                       2.011E+13   0.00    0.000E+00 ! Baulch 2005 A/(3.011E+13) error (+/-0.3)/1500-2500K also used by Klaus 1997/Vandooren 1994 
 NH+O=NO+H                                       5.000E+13   0.00    0.000E+00 ! Klaus 1997 error (+/-0.3)
 NH+O=N+OH                                       3.000E+12   0.00    0.000E+00 ! Duynslaegher 2012 A/7.000E+12)
 NH+OH=HNO+H                                     4.000E+13   0.00    0.000E+00 ! Klaus 1997 also used by Duynslaegher 2012 /Dayma&Daguat 2006(A/2.000E+13)
 NH+OH=NO+H2                                     2.400E+13   0.00    0.000E+00 ! Klaus 1997
 NH+OH=N+H2O                                     2.000E+09   1.20    5.978E+00 ! Klaus 1997 also used by Duynslaegher 2012 
 NH+O2=HNO+O                                     4.600E+05   2.00    6.500E+03 ! KLIMIC2011 cited Skreiberg 2004
 NH+O2=NO+OH                                     1.300E+06   1.50    1.000E+02 ! KLIMIC2011 cited Skreiberg 2004
 NH+NH=N2+H+H                                    2.500E+13   0.00    0.000E+00 ! Allen 1997 cited Mertens et al.; Int. J. Chem. Kinet. 21:1049 (1989); A/5.100E+13
 NH+N=N2+H                                       3.000E+13   0.00    0.000E+00 ! KLIMIC2011 cited Skreiberg 2004
 NH+NO=N2O+H                                     2.900E+14  -0.40    0.000E+00 ! Glarborg 1998; Combust. Flame 115 (1998) 1-27
 NH+NO=N2+OH                                     2.690E+12  -0.072  -5.130E+02 ! KLIMIC2011 also used by  Lamoureux 2016
 NH+NO2=N2O+OH                                   4.100E+12   0.00    0.000E+00 ! KLIMIC2011
 NH+NO2=HNO+NO                                   5.900E+12   0.00    0.000E+00 ! KLIMIC2011
 NH+HONO=NH2+NO2                                 1.000E+13   0.00    0.000E+00 ! KLIMIC2011
 NH+N2O=N2+HNO                                   2.000E+12   0.00    6.000E+03 ! Duynslaegher 2012
!------------------------------------------------------------------------------
!----------------------NH2 REACTIONS-------------------------------------------
!------------------------------------------------------------------------------
 NH2+H=NH+H2                                     2.13E+21	-2.25	 8.25E+03  !V. Samu, T. Varga, I. Rahinov, S. Cheskis, T. Turanyi, Fuel 212 (2018) 679-683.
 NH2+O=HNO+H                                     4.500E+13   0.00    0.000E+00 ! Klaus 1997 A/7.500E+13, error (+/-0.3)
 NH2+O=NH+OH                                     7.000E+12   0.00    0.000E+00 ! Klaus 1997 error (+/-0.3)also used by KLIMIC2011/Zhang 2011/Lamoureux 2016
 DUPLICATE                                                                     !
 NH2+O=NH+OH                                     8.600E-01   4.00    1.673E+03 !
 DUPLICATE                                                                     !
 NH2+O=NO+H2                                     5.000E+12   0.00    0.000E+00 ! Klaus 1997 error (+/-1.0)
 NH2+OH=NH+H2O                                   2.000E+08   1.50   -4.567E+02 ! Klaus 1997 error (+/-1.0)
 NH2+HO2=H2NO+OH                                 5.000E+13   0.00    0.000E+00 ! Skreiberg 2004 also used by KLIMIC2011
 NH2+HO2=NH3+O2                                  9.200E+05   1.94   -1.152E+03 ! Skreiberg 2004 also used by KLIMIC2011
 NH2+O2=H2NO+O                                   2.500E+11   0.50    2.958E+04 ! Skreiberg 2004 also used by KLIMIC2011/Zhang 2011
 NH2+O2=HNO+OH                                   6.200E+07   1.20    3.510E+04 ! Skreiberg 2004 also used by Zhang 2011 /Lamoureux 2016
 NH2+NH2=NH3+NH                                  5.636E+00   3.53    5.526E+02 ! KLIMIC2009 300-2500 K
 NH2+NH=NH3+N                                    9.574E+03   2.46    1.073E+02 ! KLIMIC2009 200-2500 K
 NH2+N=N2+H+H                                    5.000E+13   0.00    0.000E+00 ! Klaus 1997 also used by KLIMIC2011/Mathieu 2015/Duynslaegher 2012
 NH2+NO=N2+H2O                                   2.800E+20  -2.70    1.258E+03 ! Miller and Glarborg 1999;  IJCK 31: 757-765 also used by Zhang 2011 /Tian 2009/Duynslaegher 2012/Lamoureux 2016
 NH2+NO=NNH+OH                                   3.800E+10   0.425  -8.140E+02 ! Miller and Glarborg 1999;  IJCK 31: 757-765 also used by Zhang 2011 /Duynslaegher 2012/Lamoureux 2016
 NH2+NO=N2O+H2                                   1.000E+13   0.00    3.370E+04 ! Duynslaegher 2012
 NH2+NO2=N2O+H2O                                 1.600E+16  -1.40    2.680E+02 ! Park and Lin 1997; J. Phys. Chem. A 1997, 101, 2643-2647
 NH2+NO2=H2NO+NO                                 6.500E+16  -1.40    2.680E+02 ! Park and Lin 1997; J. Phys. Chem. A 1997, 101, 2643-2647
 NH2+HNO=NH3+NO                                  3.600E+06   1.60   -1.250E+03 ! Mebel 1996; J. Phys. Chem. 1996, 100, 7517-7525 751
 Dup
 NH2+HONO=NH3+NO2                                7.110E+01   3.00   -4.941E+03 ! Mebel 1996; J. Phys. Chem. 1996, 100, 7517-7525 751
 NH+NH=NH2+N                                     5.700E-01   3.88    3.420E+02 ! KLIMIC2009, 300-2500 K
!------------------------------------------------------------------------------
!---------------------N2H2 REACTIONS-------------------------------------------