"""
--------------------------------------------------------------------------------------------------------------------------
Combustion chemistry of ammonia/C1 fuels: A comprehensive kinetic modeling study
Xiaoyuan Zhang*, Kiran K. Yalamanchi, S. Mani Sarathy
Clean Combustion Research Center, King Abdullah University of Science and Technology, Thuwal, 23955-6900, Saudi Arabia
--------------------------------------------------------------------------------------------------------------------------
CH3OH-NH3 subset
References that mainly refered:
H. Hashemi, J.M. Christensen, S. Gersen, P. Glarborg, Hydrogen oxidation at high pressure and intermediate temperatures: Experiments and kinetic modeling, Proc. Combust. Inst. 35 (2015) 553-560.
A. Fomin, T. Zavlev, V.A. Alekseev, I. Rahinov, S. Cheskis, A.A. Konnov, Experimental and modelling study of 1CH2 in premixed very rich methane flames, Combustion and Flame 171 (2016) 198-210.
X. Zhang, B. Mei, S. Ma, H. Pan, H. Wang, Y. Li. Experimental and kinetic modeling investigation on laminar flame propagation of CH4/CO mixtures at various pressures: Insight into the transition from CH4-related chemistry to CO-related chemistry. Combust Flame 2019;209:481-92.
X. Zhang, S.P. Moosakutty, R.P. Rajan, M. Younes, S.M. Sarathy, Combustion chemistry of ammonia/hydrogen mixtures: Jet-stirred reactor measurements and comprehensive kinetic modeling, Combustion and Flame 234 (2021) 111653.
P. Glarborg, J.A. Miller, B. Ruscic, S.J. Klippenstein, Modeling nitrogen chemistry in combustion, Prog. Energy Combust. Sci. 67 (2018) 31-68.
-----------------------------------------------------------------------------------------------------COMMENTS--------------------------------------------------------------------------------------------------------------------------------------!
Dependent on what bath gas (dilutant) is most abundant in your system, you should uncomment the corresponding block for the reaction H+O2(+M)=HO2(+M), and comment the block for other dillutant(s).  As given, the main dillutant is set to be N2.!
Search "ZXY_ADDED" or "ZXY_modified" to quickly find the updated reactions
---------------------------------------------------------------------------------------------------------------------------------------------------------------------------------------------------------------------------------------------------!

"""

units(length='cm', time='s', quantity='mol', act_energy='cal/mol')

ideal_gas(name='gas',
          elements="C H N Ar He O",
          species="""AR     N2     H      H2     HE     O      OH     H2O
                     HO2    H2O2   O2     CO     CO2    HCO    HOCO   N
                     NH     NH2    NH3    NNH    N2H2   N2H3   N2H4   H2NN
                     NO     N2O    NO2    HNO    HON    HONO   H2NO   HNOH
                     NH2OH  HNO2   HONO2  NO3""",
          reactions='all',
          transport='Mix',
          initial_state=state(temperature=300.0, pressure=OneAtm))

#-------------------------------------------------------------------------------
# Species data
#-------------------------------------------------------------------------------

species(name='AR',
        atoms='Ar:1',
        thermo=(NASA([300.00, 1000.00],
                     [ 2.50000000E+00,  0.00000000E+00,  0.00000000E+00,
                       0.00000000E+00,  0.00000000E+00, -7.45375000E+02,
                       4.36600000E+00]),
                NASA([1000.00, 5000.00],
                     [ 2.50000000E+00,  0.00000000E+00,  0.00000000E+00,
                       0.00000000E+00,  0.00000000E+00, -7.45375000E+02,
                       4.36600000E+00])),
        transport=gas_transport(geom='atom',
                                diam=3.33,
                                well_depth=136.5))

species(name='N2',
        atoms='N:2',
        thermo=(NASA([300.00, 1000.00],
                     [ 3.29867700E+00,  1.40824040E-03, -3.96322200E-06,
                       5.64151500E-09, -2.44485400E-12, -1.02089990E+03,
                       3.95037200E+00]),
                NASA([1000.00, 5000.00],
                     [ 2.92664000E+00,  1.48797680E-03, -5.68476000E-07,
                       1.00970380E-10, -6.75335100E-15, -9.22797700E+02,
                       5.98052800E+00])),
        transport=gas_transport(geom='linear',
                                diam=3.621,
                                well_depth=97.53,
                                polar=1.76,
                                rot_relax=4.0))

species(name='H',
        atoms='H:1',
        thermo=(NASA([200.00, 1000.00],
                     [ 2.50000000E+00,  7.05332819E-13, -1.99591964E-15,
                       2.30081632E-18, -9.27732332E-22,  2.54736599E+04,
                      -4.46682853E-01]),
                NASA([1000.00, 3500.00],
                     [ 2.50000001E+00, -2.30842973E-11,  1.61561948E-14,
                      -4.73515235E-18,  4.98197357E-22,  2.54736599E+04,
                      -4.46682914E-01])),
        transport=gas_transport(geom='atom',
                                diam=2.05,
                                well_depth=145.0))

species(name='H2',
        atoms='H:2',
        thermo=(NASA([200.00, 1000.00],
                     [ 2.34433112E+00,  7.98052075E-03, -1.94781510E-05,
                       2.01572094E-08, -7.37611761E-12, -9.17935173E+02,
                       6.83010238E-01]),
                NASA([1000.00, 3500.00],
                     [ 3.33727920E+00, -4.94024731E-05,  4.99456778E-07,
                      -1.79566394E-10,  2.00255376E-14, -9.50158922E+02,
                      -3.20502331E+00])),
        transport=gas_transport(geom='linear',
                                diam=2.92,
                                well_depth=38.0,
                                polar=0.79,
                                rot_relax=280.0))

species(name='HE',
        atoms='He:1',
        thermo=(NASA([200.00, 1000.00],
                     [ 2.50000000E+00,  0.00000000E+00,  0.00000000E+00,
                       0.00000000E+00,  0.00000000E+00, -7.45375000E+02,
                       9.28723974E-01]),
                NASA([1000.00, 6000.00],
                     [ 2.50000000E+00,  0.00000000E+00,  0.00000000E+00,
                       0.00000000E+00,  0.00000000E+00, -7.45375000E+02,
                       9.28723974E-01])),
        transport=gas_transport(geom='atom',
                                diam=2.576,
                                well_depth=10.2))

species(name='O',
        atoms='O:1',
        thermo=(NASA([200.00, 1000.00],
                     [ 3.16826710E+00, -3.27931884E-03,  6.64306396E-06,
                      -6.12806624E-09,  2.11265971E-12,  2.91222592E+04,
                       2.05193346E+00]),
                NASA([1000.00, 3500.00],
                     [ 2.56942078E+00, -8.59741137E-05,  4.19484589E-08,
                      -1.00177799E-11,  1.22833691E-15,  2.92175791E+04,
                       4.78433864E+00])),
        transport=gas_transport(geom='atom',
                                diam=2.75,
                                well_depth=80.0))

species(name='OH',
        atoms='H:1 O:1',
        thermo=(NASA([200.00, 1000.00],
                     [ 4.12530561E+00, -3.22544939E-03,  6.52764691E-06,
                      -5.79853643E-09,  2.06237379E-12,  3.38153812E+03,
                      -6.90432960E-01]),
                NASA([1000.00, 6000.00],
                     [ 2.86472886E+00,  1.05650448E-03, -2.59082758E-07,
                       3.05218674E-11, -1.33195876E-15,  3.71885774E+03,
                       5.70164073E+00])),
        transport=gas_transport(geom='linear',
                                diam=2.75,
                                well_depth=80.0))

species(name='H2O',
        atoms='H:2 O:1',
        thermo=(NASA([200.00, 1000.00],
                     [ 4.19864056E+00, -2.03643410E-03,  6.52040211E-06,
                      -5.48797062E-09,  1.77197817E-12, -3.02937267E+04,
                      -8.49032208E-01]),
                NASA([1000.00, 3500.00],
                     [ 3.03399249E+00,  2.17691804E-03, -1.64072518E-07,
                      -9.70419870E-11,  1.68200992E-14, -3.00042971E+04,
                       4.96677010E+00])),
        transport=gas_transport(geom='nonlinear',
                                diam=2.605,
                                well_depth=572.4,
                                dipole=1.844,
                                rot_relax=4.0))

species(name='HO2',
        atoms='H:1 O:2',
        thermo=(NASA([200.00, 1000.00],
                     [ 4.30179801E+00, -4.74912051E-03,  2.11582891E-05,
                      -2.42763894E-08,  9.29225124E-12,  2.94808040E+02,
                       3.71666245E+00]),
                NASA([1000.00, 3500.00],
                     [ 4.01721090E+00,  2.23982013E-03, -6.33658150E-07,
                       1.14246370E-10, -1.07908535E-14,  1.11856713E+02,
                       3.78510215E+00])),
        transport=gas_transport(geom='nonlinear',
                                diam=3.458,
                                well_depth=107.4,
                                rot_relax=1.0))

species(name='H2O2',
        atoms='H:2 O:2',
        thermo=(NASA([200.00, 1000.00],
                     [ 4.27611269E+00, -5.42822417E-04,  1.67335701E-05,
                      -2.15770813E-08,  8.62454363E-12, -1.77025821E+04,
                       3.43505074E+00]),
                NASA([1000.00, 3500.00],
                     [ 4.16500285E+00,  4.90831694E-03, -1.90139225E-06,
                       3.71185986E-10, -2.87908305E-14, -1.78617877E+04,
                       2.91615662E+00])),
        transport=gas_transport(geom='nonlinear',
                                diam=3.458,
                                well_depth=107.4,
                                rot_relax=3.8))

species(name='O2',
        atoms='O:2',
        thermo=(NASA([200.00, 1000.00],
                     [ 3.78245636E+00, -2.99673416E-03,  9.84730201E-06,
                      -9.68129509E-09,  3.24372837E-12, -1.06394356E+03,
                       3.65767573E+00]),
                NASA([1000.00, 3500.00],
                     [ 3.28253784E+00,  1.48308754E-03, -7.57966669E-07,
                       2.09470555E-10, -2.16717794E-14, -1.08845772E+03,
                       5.45323129E+00])),
        transport=gas_transport(geom='linear',
                                diam=3.458,
                                well_depth=107.4,
                                polar=1.6,
                                rot_relax=3.8))

species(name='CO',
        atoms='C:1 O:1',
        thermo=(NASA([200.00, 1000.00],
                     [ 3.57953347E+00, -6.10353680E-04,  1.01681433E-06,
                       9.07005884E-10, -9.04424499E-13, -1.43440860E+04,
                       3.50840928E+00]),
                NASA([1000.00, 3500.00],
                     [ 2.71518561E+00,  2.06252743E-03, -9.98825771E-07,
                       2.30053008E-10, -2.03647716E-14, -1.41518724E+04,
                       7.81868772E+00])),
        transport=gas_transport(geom='linear',
                                diam=3.65,
                                well_depth=98.1,
                                polar=1.95,
                                rot_relax=1.8))

species(name='CO2',
        atoms='C:1 O:2',
        thermo=(NASA([200.00, 1000.00],
                     [ 2.35677352E+00,  8.98459677E-03, -7.12356269E-06,
                       2.45919022E-09, -1.43699548E-13, -4.83719697E+04,
                       9.90105222E+00]),
                NASA([1000.00, 3500.00],
                     [ 3.85746029E+00,  4.41437026E-03, -2.21481404E-06,
                       5.23490188E-10, -4.72084164E-14, -4.87591660E+04,
                       2.27163806E+00])),
        transport=gas_transport(geom='linear',
                                diam=3.763,
                                well_depth=244.0,
                                polar=2.65,
                                rot_relax=2.1))

species(name='HCO',
        atoms='C:1 H:1 O:1',
        thermo=(NASA([200.00, 1000.00],
                     [ 4.22118584E+00, -3.24392532E-03,  1.37799446E-05,
                      -1.33144093E-08,  4.33768865E-12,  3.83956496E+03,
                       3.39437243E+00]),
                NASA([1000.00, 3500.00],
                     [ 2.77217438E+00,  4.95695526E-03, -2.48445613E-06,
                       5.89161778E-10, -5.33508711E-14,  4.01191815E+03,
                       9.79834492E+00])),
        transport=gas_transport(geom='nonlinear',
                                diam=3.59,
                                well_depth=498.0))

species(name='HOCO',
        atoms='C:1 H:1 O:2',
        thermo=(NASA([200.00, 1000.00],
                     [ 2.92207919E+00,  7.62453859E-03,  3.29884437E-06,
                      -1.07135205E-08,  5.11587057E-12, -2.33512327E+04,
                       1.12925886E+01]),
                NASA([1000.00, 6000.00],
                     [ 5.39206152E+00,  4.11221455E-03, -1.48194900E-06,
                       2.39875460E-10, -1.43903104E-14, -2.36480760E+04,
                      -2.23529091E+00])),
        transport=gas_transport(geom='nonlinear',
                                diam=3.59,
                                well_depth=498.0,
                                rot_relax=2.0),
        note='ATcT-A')

species(name='N',
        atoms='N:1',
        thermo=(NASA([300.00, 1000.00],
                     [ 2.50307100E+00, -2.18001800E-05,  5.42052900E-08,
                      -5.64756000E-11,  2.09990400E-14,  5.60989000E+04,
                       4.16756600E+00]),
                NASA([1000.00, 5000.00],
                     [ 2.45026800E+00,  1.06614600E-04, -7.46533700E-08,
                       1.87965200E-11, -1.02598400E-15,  5.61160400E+04,
                       4.44875800E+00])),
        transport=gas_transport(geom='atom',
                                diam=3.298,
                                well_depth=71.4),
        note='120186')

species(name='NH',
        atoms='H:1 N:1',
        thermo=(NASA([298.15, 1000.00],
                     [ 3.49138447E+00,  2.48105072E-04, -1.22352658E-06,
                       1.97740127E-09, -7.89210613E-13,  4.17851517E+04,
                       1.83667301E+00]),
                NASA([1000.00, 2000.00],
                     [ 3.38393047E+00, -3.04401048E-04,  1.07871576E-06,
                      -5.39749068E-10,  8.56574985E-14,  4.18557586E+04,
                       2.60065696E+00])),
        transport=gas_transport(geom='linear',
                                diam=2.65,
                                well_depth=80.0,
                                rot_relax=4.0))

species(name='NH2',
        atoms='H:2 N:1',
        thermo=(NASA([298.15, 1000.00],
                     [ 4.02590054E+00, -9.53251946E-04,  4.13467348E-06,
                      -2.81816628E-09,  6.73047183E-13,  2.12447390E+04,
                       5.86219857E-01]),
                NASA([1000.00, 2000.00],
                     [ 3.80751460E+00,  1.74138848E-04,  2.06281679E-06,
                      -1.18308148E-09,  2.00814234E-13,  2.12757238E+04,
                       1.57634407E+00])),
        transport=gas_transport(geom='nonlinear',
                                diam=2.65,
                                well_depth=80.0,
                                polar=2.26,
                                rot_relax=4.0))

species(name='NH3',
        atoms='H:3 N:1',
        thermo=(NASA([300.00, 1000.00],
                     [ 2.20435200E+00,  1.01147600E-02, -1.46526500E-05,
                       1.44723500E-08, -5.32850900E-12, -6.52548800E+03,
                       8.12713800E+00]),
                NASA([1000.00, 5000.00],
                     [ 2.46190400E+00,  6.05916600E-03, -2.00497700E-06,
                       3.13600300E-10, -1.93831700E-14, -6.49327000E+03,
                       7.47209700E+00])),
        transport=gas_transport(geom='nonlinear',
                                diam=2.92,
                                well_depth=481.0,
                                dipole=1.47,
                                rot_relax=10.0),
        note='121386')

species(name='NNH',
        atoms='H:1 N:2',
        thermo=(NASA([298.15, 1000.00],
                     [ 3.86231284E+00, -4.41898698E-04,  6.38522141E-06,
                      -5.84138844E-09,  1.69125822E-12,  2.91621298E+04,
                       4.85334915E+00]),
                NASA([1000.00, 2000.00],
                     [ 2.78024159E+00,  4.51114118E-03, -1.98147075E-06,
                       3.61161241E-10, -1.55679242E-14,  2.93473063E+04,
                       9.91752869E+00])),
        transport=gas_transport(geom='nonlinear',
                                diam=3.798,
                                well_depth=71.4,
                                rot_relax=1.0))

species(name='N2H2',
        atoms='H:2 N:2',
        thermo=(NASA([298.15, 1000.00],
                     [ 4.14915878E+00, -4.82013543E-03,  2.19606525E-05,
                      -2.03662902E-08,  6.25367200E-12,  2.32874597E+04,
                       3.19154222E+00]),
                NASA([1000.00, 2000.00],
                     [ 2.38388380E+00,  6.63619559E-03, -1.81669068E-06,
                      -1.19497031E-10,  9.31659255E-14,  2.34207532E+04,
                       1.06091658E+01])),
        transport=gas_transport(geom='nonlinear',
                                diam=3.798,
                                well_depth=71.4,
                                rot_relax=1.0))

species(name='N2H3',
        atoms='H:3 N:2',
        thermo=(NASA([200.00, 1000.00],
                     [ 3.42125505E+00,  1.34901590E-03,  2.23459071E-05,
                      -2.99727732E-08,  1.20978970E-11,  2.53056139E+04,
                       7.83176309E+00]),
                NASA([1000.00, 6000.00],
                     [ 4.04483566E+00,  7.31130186E-03, -2.47625799E-06,
                       3.83733021E-10, -2.23107573E-14,  2.48098603E+04,
                       2.88423392E+00])),
        transport=gas_transport(geom='nonlinear',
                                diam=3.9,
                                well_depth=200.0,
                                rot_relax=1.0),
        note='A05-05')

species(name='N2H4',
        atoms='H:4 N:2',
        thermo=(NASA([200.00, 1000.00],
                     [ 3.83472149E+00, -6.49129555E-04,  3.76848463E-05,
                      -5.00709182E-08,  2.03362064E-11,  1.00893925E+04,
                       5.75272030E+00]),
                NASA([1000.00, 6000.00],
                     [ 4.93957357E+00,  8.75017187E-03, -2.99399058E-06,
                       4.67278418E-10, -2.73068599E-14,  9.28265548E+03,
                      -2.69439772E+00])),
        transport=gas_transport(geom='nonlinear',
                                diam=4.23,
                                well_depth=205.0,
                                polar=4.26,
                                rot_relax=1.5),
        note='L-5-90')

species(name='H2NN',
        atoms='H:2 N:2',
        thermo=(NASA([200.00, 1000.00],
                     [ 4.53204001E+00, -7.32418578E-03,  3.00803713E-05,
                      -3.04000551E-08,  1.04700639E-11,  3.49580003E+04,
                       1.51074195E+00]),
                NASA([1000.00, 6000.00],
                     [ 3.05903670E+00,  6.18382347E-03, -2.22171165E-06,
                       3.58539206E-10, -2.14532905E-14,  3.48530149E+04,
                       6.69893515E+00])),
        transport=gas_transport(geom='nonlinear',
                                diam=3.798,
                                well_depth=71.4,
                                rot_relax=1.0),
        note='T-9-11')

species(name='NO',
        atoms='N:1 O:1',
        thermo=(NASA([300.00, 1000.00],
                     [ 3.37654200E+00,  1.25306300E-03, -3.30275100E-06,
                       5.21781000E-09, -2.44626300E-12,  9.81796100E+03,
                       5.82959000E+00]),
                NASA([1000.00, 5000.00],
                     [ 3.24543500E+00,  1.26913800E-03, -5.01589000E-07,
                       9.16928300E-11, -6.27541900E-15,  9.80084000E+03,
                       6.41729400E+00])),
        transport=gas_transport(geom='linear',
                                diam=3.621,
                                well_depth=97.53,
                                polar=1.76,
                                rot_relax=4.0),
        note='121286')

species(name='N2O',
        atoms='N:2 O:1',
        thermo=(NASA([300.00, 1000.00],
                     [ 2.54305800E+00,  9.49219300E-03, -9.79277500E-06,
                       6.26384500E-09, -1.90182600E-12,  8.76510000E+03,
                       9.51122200E+00]),
                NASA([1000.00, 5000.00],
                     [ 4.71897700E+00,  2.87371400E-03, -1.19749600E-06,
                       2.25055200E-10, -1.57533700E-14,  8.16581100E+03,
                      -1.65725000E+00])),
        transport=gas_transport(geom='linear',
                                diam=3.828,
                                well_depth=232.4,
                                rot_relax=1.0),
        note='121286')

species(name='NO2',
        atoms='N:1 O:2',
        thermo=(NASA([300.00, 1000.00],
                     [ 2.67060000E+00,  7.83850100E-03, -8.06386500E-06,
                       6.16171500E-09, -2.32015000E-12,  2.89629100E+03,
                       1.16120700E+01]),
                NASA([1000.00, 5000.00],
                     [ 4.68285900E+00,  2.46242900E-03, -1.04225900E-06,
                       1.97690200E-10, -1.39171700E-14,  2.26129200E+03,
                       9.88598500E-01])),
        transport=gas_transport(geom='nonlinear',
                                diam=3.5,
                                well_depth=200.0,
                                rot_relax=1.0),
        note='121286')

species(name='HNO',
        atoms='H:1 N:1 O:1',
        thermo=(NASA([300.00, 1000.00],
                     [ 2.78440300E+00,  6.60964600E-03, -9.30022300E-06,
                       9.43798000E-09, -3.75314600E-12,  1.09187800E+04,
                       9.03562900E+00]),
                NASA([1000.00, 5000.00],
                     [ 3.61514400E+00,  3.21248600E-03, -1.26033700E-06,
                       2.26729800E-10, -1.53623600E-14,  1.06619100E+04,
                       4.81026400E+00])),
        transport=gas_transport(geom='nonlinear',
                                diam=3.492,
                                well_depth=116.7,
                                rot_relax=1.0),
        note='121286')

species(name='HON',
        atoms='H:1 N:1 O:1',
        thermo=(NASA([300.00, 1671.00],
                     [ 3.33656431E+00,  2.67682939E-03,  5.61801303E-07,
                      -1.11362279E-09,  2.84076438E-13,  2.95979751E+04,
                       5.96343188E+00]),
                NASA([1671.00, 5000.00],
                     [ 3.78577430E+00,  2.86062728E-03, -1.02423922E-06,
                       1.64463139E-10, -9.77943616E-15,  2.93319701E+04,
                       3.12193293E+00])),
        transport=gas_transport(geom='nonlinear',
                                diam=3.492,
                                well_depth=116.7,
                                rot_relax=1.0),
        note='LIUS93')

species(name='HONO',
        atoms='H:1 N:1 O:2',
        thermo=(NASA([300.00, 1000.00],
                     [ 2.29041300E+00,  1.40992200E-02, -1.36787200E-05,
                       7.49878000E-09, -1.87690500E-12, -1.04319500E+04,
                       1.32807700E+01]),
                NASA([1000.00, 5000.00],
                     [ 5.48689300E+00,  4.21806500E-03, -1.64914300E-06,
                       2.97187700E-10, -2.02114800E-14, -1.12686500E+04,
                      -2.99700200E+00])),
        transport=gas_transport(geom='nonlinear',
                                diam=3.828,
                                well_depth=232.4,
                                rot_relax=1.0),
        note='-31787')

species(name='H2NO',
        atoms='H:2 N:1 O:1',
        thermo=(NASA([300.00, 1500.00],
                     [ 2.53059000E+00,  8.59603500E-03, -5.47103000E-06,
                       2.27624900E-09, -4.64807300E-13,  6.86803000E+03,
                       1.12665100E+01]),
                NASA([1500.00, 4000.00],
                     [ 5.67334600E+00,  2.29883700E-03, -1.77444600E-07,
                      -1.10348200E-10,  1.85976200E-14,  5.56932500E+03,
                      -6.15354000E+00])),
        transport=gas_transport(geom='nonlinear',
                                diam=3.492,
                                well_depth=116.7,
                                rot_relax=1.0),
        note='102290')

species(name='HNOH',
        atoms='H:2 N:1 O:1',
        thermo=(NASA([200.00, 1000.00],
                     [ 3.95608248E+00, -3.02611020E-03,  2.56874396E-05,
                      -3.15645120E-08,  1.24084574E-11,  1.09199790E+04,
                       5.55950983E+00]),
                NASA([1000.00, 6000.00],
                     [ 3.98321933E+00,  4.88846374E-03, -1.65086637E-06,
                       2.55371446E-10, -1.48308561E-14,  1.05780106E+04,
                       3.62582838E+00])),
        transport=gas_transport(geom='nonlinear',
                                diam=3.492,
                                well_depth=116.7,
                                rot_relax=1.0),
        note='T11-11')

species(name='NH2OH',
        atoms='H:3 N:1 O:1',
        thermo=(NASA([200.00, 1000.00],
                     [ 3.21016092E+00,  6.19671676E-03,  1.10594948E-05,
                      -1.96668262E-08,  8.82516590E-12, -6.58148481E+03,
                       7.93293571E+00]),
                NASA([1000.00, 6000.00],
                     [ 3.88112502E+00,  8.15708448E-03, -2.82615576E-06,
                       4.37930933E-10, -2.52724604E-14, -6.86018419E+03,
                       3.79156136E+00])),
        transport=gas_transport(geom='nonlinear',
                                diam=3.492,
                                well_depth=116.7,
                                rot_relax=1.0),
        note='ATcT-A')

species(name='HNO2',
        atoms='H:1 N:1 O:2',
        thermo=(NASA([300.00, 1500.00],
                     [ 1.93483800E+00,  1.01003600E-02, -4.96461600E-06,
                       8.70112000E-10, -2.32413500E-15, -5.91571591E+03,
                       1.47282082E+01]),
                NASA([1500.00, 4000.00],
                     [ 6.47963000E+00,  1.99527400E-03, -1.74038700E-07,
                      -9.69587200E-11,  1.70148000E-14, -7.80950291E+03,
                      -1.06771518E+01])),
        transport=gas_transport(geom='nonlinear',
                                diam=3.828,
                                well_depth=232.4,
                                rot_relax=1.0))

species(name='HONO2',
        atoms='H:1 N:1 O:3',
        thermo=(NASA([200.00, 1000.00],
                     [ 1.69329154E+00,  1.90167702E-02, -8.25176697E-06,
                      -6.06113827E-09,  4.65236978E-12, -1.73882411E+04,
                       1.71839655E+01]),
                NASA([1000.00, 6000.00],
                     [ 8.03098942E+00,  4.46958589E-03, -1.72459491E-06,
                       2.91556153E-10, -1.80102702E-14, -1.92821685E+04,
                      -1.62616720E+01])),
        transport=gas_transport(geom='nonlinear',
                                diam=3.828,
                                well_depth=232.4,
                                rot_relax=1.0),
        note='T-8-03')

species(name='NO3',
        atoms='N:1 O:3',
        thermo=(NASA([200.00, 1000.00],
                     [ 2.17359330E+00,  1.04902685E-02,  1.10472669E-05,
                      -2.81561867E-08,  1.36583960E-11,  7.81290905E+03,
                       1.46022090E+01]),
                NASA([1000.00, 6000.00],
                     [ 7.48347702E+00,  2.57772064E-03, -1.00945831E-06,
                       1.72314063E-10, -1.07154008E-14,  6.12990474E+03,
                      -1.41618136E+01])),
        transport=gas_transport(geom='nonlinear',
                                diam=4.175,
                                well_depth=378.4,
                                rot_relax=1.0),
        note='ATcT-A')

#-------------------------------------------------------------------------------
# Reaction data
#-------------------------------------------------------------------------------
# ************************ H2/CO mechanism **************************************
# H. Hashemi, J.M. Christensen, S. Gersen, P. Glarborg, Hydrogen oxidation at high pressure and intermediate temperatures: Experiments and kinetic modeling, Proc. Combust. Inst. 35 (2015) 553-560.
# ======================
# H2-O2 Chain Reactions
# ======================
#  Hong et al., Proc. Comb. Inst. 33:309-316 (2011)

# Reaction 1
reaction('H + O2 <=> O + OH', [1.040000e+14, 0.0, 15286.0])
#  Baulch et al., J. Phys. Chem. Ref. Data, 21:411 (1992)

# Reaction 2
reaction('O + H2 <=> H + OH', [3.818000e+12, 0.0, 7948.0],
         options='duplicate')

# Reaction 3
reaction('O + H2 <=> H + OH', [8.792000e+14, 0.0, 19170.0],
         options='duplicate')
#  Michael and Sutherland, J. Phys. Chem. 92:3853 (1988)

# Reaction 4
reaction('H2 + OH <=> H2O + H', [2.160000e+08, 1.51, 3430.0])
#  M. Sangwan, L. N. Krasnoperov, The Journal of Physical Chemistry A 116 (2012) 11817?1822.
# !OH+OH = O+H2O						1.35E+07   1.689  -1166.8
# !    DUPLICATE
# !OH+OH = O+H2O					      -2.697E+10   0.567  0.0
# !    DUPLICATE
# ZXY_modified: refitted to avoid the negative A factor

# Reaction 5