THERMO ALL
  300.000  1000.000  5000.000
!(CH2O)3 for LFS simulation of CH2O
C3H6O3 Trioxane   T10/10C  3.H  6.O  3.   0.G   200.000  6000.000 1000.        1 
 9.92478422E+00 2.18093198E-02-7.93042731E-06 1.29091522E-09-7.77324725E-14    2 
-6.25507483E+04-3.12305136E+01 3.55243730E+00 1.70629316E-03 9.91146863E-05    3 
-1.31998807E-07 5.26422498E-11-5.90301584E+04 1.06184813E+01-5.72554890E+04    4
AR                      AR  1               G     300.0    5000.0  1000.0      1
          2.5E0          0.0E0          0.0E0          0.0E0          0.0E0    2
     -7.45375E2        4.366E0          2.5E0          0.0E0          0.0E0    3
          0.0E0          0.0E0     -7.45375E2        4.366E0                   4
N2                      N   2               G     300.0    5000.0  1000.0      1
      2.92664E0   1.4879768E-3    -5.68476E-7  1.0097038E-10  -6.753351E-15    2
    -9.227977E2     5.980528E0     3.298677E0   1.4082404E-3   -3.963222E-6    3
    5.641515E-9  -2.444854E-12   -1.0208999E3     3.950372E0                   4
H                       H   1               G     200.0    3500.0  1000.0      1
   2.50000001E0-2.30842973E-11 1.61561948E-14-4.73515235E-18 4.98197357E-22    2
   2.54736599E4 -4.46682914E-1          2.5E0 7.05332819E-13-1.99591964E-15    3
 2.30081632E-18-9.27732332E-22   2.54736599E4 -4.46682853E-1                   4
H2                      H   2               G     200.0    3500.0  1000.0      1
    3.3372792E0 -4.94024731E-5  4.99456778E-7-1.79566394E-10 2.00255376E-14    2
  -9.50158922E2  -3.20502331E0   2.34433112E0  7.98052075E-3  -1.9478151E-5    3
  2.01572094E-8-7.37611761E-12  -9.17935173E2  6.83010238E-1                   4
HE                      HE  1               G     200.0    6000.0  1000.0      1
          2.5E0          0.0E0          0.0E0          0.0E0          0.0E0    2
     -7.45375E2  9.28723974E-1          2.5E0          0.0E0          0.0E0    3
          0.0E0          0.0E0     -7.45375E2  9.28723974E-1                   4
O                       O   1               G     200.0    3500.0  1000.0      1
   2.56942078E0 -8.59741137E-5  4.19484589E-8-1.00177799E-11 1.22833691E-15    2
   2.92175791E4   4.78433864E0    3.1682671E0 -3.27931884E-3  6.64306396E-6    3
 -6.12806624E-9 2.11265971E-12   2.91222592E4   2.05193346E0                   4
OH                      H   1O   1          G     200.0    6000.0  1000.0      1
   2.86472886E0  1.05650448E-3 -2.59082758E-7 3.05218674E-11-1.33195876E-15    2
   3.71885774E3   5.70164073E0   4.12530561E0 -3.22544939E-3  6.52764691E-6    3
 -5.79853643E-9 2.06237379E-12   3.38153812E3  -6.9043296E-1                   4
H2O                     H   2O   1          G     200.0    3500.0  1000.0      1
   3.03399249E0  2.17691804E-3 -1.64072518E-7 -9.7041987E-11 1.68200992E-14    2
  -3.00042971E4    4.9667701E0   4.19864056E0  -2.0364341E-3  6.52040211E-6    3
 -5.48797062E-9 1.77197817E-12  -3.02937267E4 -8.49032208E-1                   4
HO2                     H   1O   2          G     200.0    3500.0  1000.0      1
    4.0172109E0  2.23982013E-3  -6.3365815E-7  1.1424637E-10-1.07908535E-14    2
   1.11856713E2   3.78510215E0   4.30179801E0 -4.74912051E-3  2.11582891E-5    3
 -2.42763894E-8 9.29225124E-12    2.9480804E2   3.71666245E0                   4
H2O2                    H   2O   2          G     200.0    3500.0  1000.0      1
   4.16500285E0  4.90831694E-3 -1.90139225E-6 3.71185986E-10-2.87908305E-14    2
  -1.78617877E4   2.91615662E0   4.27611269E0 -5.42822417E-4  1.67335701E-5    3
 -2.15770813E-8 8.62454363E-12  -1.77025821E4   3.43505074E0                   4
O2                      O   2               G     200.0    3500.0  1000.0      1
   3.28253784E0  1.48308754E-3 -7.57966669E-7 2.09470555E-10-2.16717794E-14    2
  -1.08845772E3   5.45323129E0   3.78245636E0 -2.99673416E-3  9.84730201E-6    3
 -9.68129509E-9 3.24372837E-12  -1.06394356E3   3.65767573E0                   4
C                       C   1               G     200.0    3500.0  1000.0      1
   2.49266888E0  4.79889284E-5  -7.2433502E-8 3.74291029E-11-4.87277893E-15    2
   8.54512953E4   4.80150373E0   2.55423955E0 -3.21537724E-4  7.33792245E-7    3
-7.32234889E-10 2.66521446E-13   8.54438832E4   4.53130848E0                   4
CH                      H   1C   1          G     200.0    3500.0  1000.0      1
   2.87846473E0  9.70913681E-4  1.44445655E-7-1.30687849E-10 1.76079383E-14    2
   7.10124364E4   5.48497999E0   3.48981665E0  3.23835541E-4 -1.68899065E-6    3
  3.16217327E-9-1.40609067E-12   7.07972934E4   2.08401108E0                   4
CH2                     H   2C   1          G     200.0    3500.0  1000.0      1
   2.87410113E0  3.65639292E-3 -1.40894597E-6 2.60179549E-10-1.87727567E-14    2
    4.6263604E4   6.17119324E0   3.76267867E0  9.68872143E-4  2.79489841E-6    3
 -3.85091153E-9 1.68741719E-12   4.60040401E4   1.56253185E0                   4
CH2(S)                  H   2C   1          G     200.0    3500.0  1000.0      1
   2.29203842E0  4.65588637E-3 -2.01191947E-6    4.17906E-10-3.39716365E-14    2
   5.09259997E4   8.62650169E0   4.19860411E0 -2.36661419E-3   8.2329622E-6    3
 -6.68815981E-9 1.94314737E-12   5.04968163E4 -7.69118967E-1                   4
CH3                     H   3C   1          G     200.0    3500.0  1000.0      1
   2.28571772E0  7.23990037E-3 -2.98714348E-6 5.95684644E-10-4.67154394E-14    2
   1.67755843E4   8.48007179E0    3.6735904E0  2.01095175E-3  5.73021856E-6    3
 -6.87117425E-9 2.54385734E-12   1.64449988E4   1.60456433E0                   4
CH4                     H   4C   1          G     200.0    3500.0  1000.0      1
   7.4851495E-2  1.33909467E-2 -5.73285809E-6  1.22292535E-9 -1.0181523E-13    2
  -9.46834459E3    1.8437318E1   5.14987613E0 -1.36709788E-2  4.91800599E-5    3
 -4.84743026E-8 1.66693956E-11  -1.02466476E4  -4.64130376E0                   4
CO                      O   1C   1          G     200.0    3500.0  1000.0      1
   2.71518561E0  2.06252743E-3 -9.98825771E-7 2.30053008E-10-2.03647716E-14    2
  -1.41518724E4   7.81868772E0   3.57953347E0  -6.1035368E-4  1.01681433E-6    3
 9.07005884E-10-9.04424499E-13   -1.4344086E4   3.50840928E0                   4
CO2                     O   2C   1          G     200.0    3500.0  1000.0      1
   3.85746029E0  4.41437026E-3 -2.21481404E-6 5.23490188E-10-4.72084164E-14    2
   -4.8759166E4   2.27163806E0   2.35677352E0  8.98459677E-3 -7.12356269E-6    3
  2.45919022E-9-1.43699548E-13  -4.83719697E4   9.90105222E0                   4
HCO                     H   1O   1C   1     G     200.0    3500.0  1000.0      1
   2.77217438E0  4.95695526E-3 -2.48445613E-6 5.89161778E-10-5.33508711E-14    2
   4.01191815E3   9.79834492E0   4.22118584E0 -3.24392532E-3  1.37799446E-5    3
 -1.33144093E-8 4.33768865E-12   3.83956496E3   3.39437243E0                   4
CH2O                    H   2O   1C   1     G     200.0    3500.0  1000.0      1
   1.76069008E0  9.20000082E-3 -4.42258813E-6  1.00641212E-9 -8.8385564E-14    2
  -1.39958323E4    1.3656323E1   4.79372315E0 -9.90833369E-3  3.73220008E-5    3
 -3.79285261E-8 1.31772652E-11  -1.43089567E4    6.028129E-1                   4
HCOH              T-9-09H   2O   1C   1     G     200.0    6000.0  1000.0      1
   3.65237205E0   5.5580706E-3 -1.97617181E-6 3.16823378E-10-1.88747598E-14    2
   1.35536156E4    4.2214084E0   4.65733258E0 -9.53742306E-3  4.04679152E-5    3
 -4.45317569E-8 1.64761516E-11   1.38615127E4   1.97860732E0                   4
CH2OH                   H   3O   1C   1     G     200.0    6000.0  1000.0      1
    5.0931437E0   5.9476126E-3  -2.0649746E-6 3.23008173E-10-1.88125902E-14    2
   -4.0340964E3  -1.84691493E0   4.47834367E0  -1.3507031E-3   2.7848498E-5    3
  -3.6486906E-8  1.4790745E-11   -3.5007289E3     3.309135E0                   4
CH3O                    H   3O   1C   1     G     200.0    6000.0  1000.0      1
   4.75779238E0  7.44142474E-3 -2.69705176E-6 4.38090504E-10-2.63537098E-14    2
    3.7811194E2  -1.96680028E0   3.71180502E0 -2.80463306E-3  3.76550971E-5    3
 -4.73072089E-8  1.8658842E-11    1.2956976E3   6.57240864E0                   4
CH3OH                   H   4O   1C   1     G     200.0    3500.0  1000.0      1
   1.78970791E0  1.40938292E-2 -6.36500835E-6  1.38171085E-9 -1.1706022E-13    2
  -2.53748747E4   1.45023623E1   5.71539582E0 -1.52309129E-2  6.52441155E-5    3
 -7.10806889E-8 2.61352698E-11  -2.56427656E4  -1.50409823E0                   4
C2H                     H   1C   2          G     200.0    3500.0  1000.0      1
   3.16780652E0  4.75221902E-3 -1.83787077E-6 3.04190252E-10 -1.7723277E-14    2
    6.7121065E4   6.63589475E0   2.88965733E0  1.34099611E-2 -2.84769501E-5    3
  2.94791045E-8-1.09331511E-11   6.68393932E4   6.22296438E0                   4
C2H2                    H   2C   2          G     200.0    3500.0  1000.0      1
   4.14756964E0  5.96166664E-3 -2.37294852E-6 4.67412171E-10-3.61235213E-14    2
   2.59359992E4  -1.23028121E0  8.08681094E-1  2.33615629E-2 -3.55171815E-5    3
  2.80152437E-8-8.50072974E-12   2.64289807E4   1.39397051E1                   4
H2CC                    H   2C   2          G     200.0    6000.0  1000.0      1
     4.278034E0   4.7562804E-3  -1.6301009E-6  2.5462806E-10 -1.4886379E-14    2
    4.8316688E4   6.4023701E-1    3.2815483E0   6.9764791E-3  -2.3855244E-6    3
  -1.2104432E-9  9.8189545E-13    4.8621794E4     5.920391E0                   4
HCCOH                   H   2O   1C   2     G     300.0    5000.0  1000.0      1
    5.9238291E0     6.79236E-3  -2.5658564E-6  4.4987841E-10 -2.9940101E-14    2
     7.264626E3   -7.6017742E0    1.2423733E0   3.1072201E-2  -5.0866864E-5    3
   4.3137131E-8 -1.4014594E-11    8.0316143E3    1.3874319E1                   4
C2H3                    H   3C   2          G     200.0    3500.0  1000.0      1
     3.016724E0  1.03302292E-2 -4.68082349E-6  1.01763288E-9-8.62607041E-14    2
   3.46128739E4   7.78732378E0   3.21246645E0  1.51479162E-3  2.59209412E-5    3
 -3.57657847E-8 1.47150873E-11   3.48598468E4   8.51054025E0                   4
C2H4                    H   4C   2          G     200.0    3500.0  1000.0      1
   2.03611116E0  1.46454151E-2 -6.71077915E-6  1.47222923E-9-1.25706061E-13    2
   4.93988614E3   1.03053693E1   3.95920148E0 -7.57052247E-3  5.70990292E-5    3
 -6.91588753E-8 2.69884373E-11   5.08977593E3   4.09733096E0                   4
C2H5                    H   5C   2          G     200.0    3500.0  1000.0      1
   1.95465642E0  1.73972722E-2 -7.98206668E-6  1.75217689E-9-1.49641576E-13    2
     1.285752E4   1.34624343E1   4.30646568E0 -4.18658892E-3  4.97142807E-5    3
 -5.99126606E-8 2.30509004E-11   1.28416265E4   4.70720924E0                   4
C2H6                    H   6C   2          G     200.0    3500.0  1000.0      1
    1.0718815E0  2.16852677E-2 -1.00256067E-5  2.21412001E-9 -1.9000289E-13    2
  -1.14263932E4   1.51156107E1   4.29142492E0  -5.5015427E-3  5.99438288E-5    3
 -7.08466285E-8 2.68685771E-11  -1.15222055E4   2.66682316E0                   4
! C2 (g) ATcT ver. 1.122, DHf298 = 828.67    0.26 kJ/mol - fit JAN17
C2                ATcT3EC   2               G     200.0    6000.0  1000.0      1
   3.55870014E0  7.86412096E-4 -1.25558422E-7 8.97792994E-12-1.32453488E-16    2
     9.889035E4   4.18695466E0   1.33654919E0   3.5969289E-2 -1.11849524E-4    3
  1.31762493E-7-5.29904082E-11   9.84220606E4   9.54586591E0                   4
C2O                     O   1C   2          G     200.0    6000.0  1000.0      1
    5.1512722E0   2.3726722E-3  -7.6135971E-7  1.1706415E-10 -7.0257804E-15    2
    3.3241888E4   -2.2183135E0     2.864861E0   1.1990216E-2  -1.8362448E-5    3
   1.5769739E-8 -5.3897452E-12    3.3749932E4    8.8867772E0                   4
HCCO                    H   1O   1C   2     G     300.0    4000.0  1000.0      1
    5.6282058E0   4.0853401E-3  -1.5934547E-6  2.8626052E-10 -1.9407832E-14    2
    1.9327215E4   -3.9302595E0    2.2517214E0   1.7655021E-2  -2.3729101E-5    3
   1.7275759E-8 -5.0664811E-12    2.0059449E4    1.2490417E1                   4
CH2CO                   H   2O   1C   2     G     200.0    3500.0  1000.0      1
   4.51129732E0  9.00359745E-3 -4.16939635E-6 9.23345882E-10-7.94838201E-14    2
      -7.7785E3  6.32247205E-1    2.1358363E0  1.81188721E-2 -1.73947474E-5    3
  9.34397568E-9-2.01457615E-12        -7.27E3    1.2215648E1                   4
CH3CO                   H   3O   1C   2     G     200.0    6000.0  1000.0      1
    5.9447731E0   7.8667205E-3  -2.8865882E-6  4.7270875E-10 -2.8599861E-14    2
   -3.7873075E3   -5.0136751E0    4.1634257E0   -2.326161E-4    3.426782E-5    3
  -4.4105227E-8  1.7275612E-11   -2.6574529E3     7.346828E0                   4
CH2CHO                  H   3O   1C   2     G     300.0    5000.0  1000.0      1
    5.9756699E0   8.1305914E-3  -2.7436245E-6  4.0703041E-10 -2.1760171E-14    2
       -9.695E2   -5.0320879E0    3.4090624E0   1.0738574E-2   1.8914925E-6    3
  -7.1585831E-9  2.8673851E-12          6.2E1    9.5714535E0                   4
!CH3CHO                  C   2H   4O   1     G   200.000  6000.0    1000.0      1
! 0.54041108E+01 0.11723059E-01-0.42263137E-05 0.68372451E-09-0.40984863E-13    2
!-0.22593122E+05-0.34807917E+01 0.47294595E+01-0.31932858E-02 0.47534921E-04    3
!-0.57458611E-07 0.21931112E-10-0.21572878E+05 0.41030159E+01-0.19987949E+05    4
!Calculated by  Sivaramakrishnan, 2015 JPCA 7724-7733.
CH3CHO                  H   4O   1C   2     G     500.0    2500.0  1000.0      1
    1.2944297E0   2.0156228E-2  -1.0664726E-5    2.785125E-9 -2.9060103E-13    2
   -2.0854004E4    1.8713217E1    7.353345E-1   2.1943147E-2   -1.300132E-5    3
   4.3339361E-9 -7.3064215E-13   -2.0708698E4    2.1550428E1                   4
C2H5O                   H   5O   1C   2     G     300.0    5000.0  1393.0      1
   8.23717244E0  1.10885879E-2 -3.78808372E-6 5.87613473E-10-3.40712889E-14    2
  -6.22948597E3  -1.93190543E1  2.87429022E-1  2.86500918E-2 -1.83857008E-5    3
  6.03096179E-9-8.04562643E-13  -3.35717377E3   2.37513898E1                   4
!##############2010 Black _ Curran _ Pichon _ Simmie _ Zhukov###################
!C2H3OH                  C   2H   4O   1     G   300.000  5000.000 1410.000     1
! 8.32598158E+00 8.03387281E-03-2.63928405E-06 3.98410726E-10-2.26551155E-14    2
!-1.83221436E+04-2.02080305E+01-1.27972260E-01 3.38506073E-02-3.30644935E-05    3
! 1.64858739E-08-3.19935455E-12-1.59914544E+04 2.30438601E+01                   4
!Calculated by Sivaramakrishnan, 2015 JPCA 7724-7733.
C2H3OH                  H   4O   1C   2     G     500.0    2500.0  1000.0      1
    5.1035565E0   1.3601888E-2  -6.3205609E-6   1.4714006E-9 -1.3892731E-13    2
   -1.7204624E4   -1.8053199E0   2.4472714E-1   3.3922763E-2  -3.8558817E-5    3
   2.4420604E-8 -6.3119208E-12   -1.6262849E4    2.1450051E1                   4
HCCHOH                  H   3O   1C   2     G     300.0    5000.0  1411.0      1
   8.08589999E0  5.40439348E-3 -1.55258652E-6 2.13486072E-10-1.14112108E-14    2
   1.16372053E4  -1.65147643E1  9.99819422E-1  2.70273221E-2 -2.66916711E-5    3
  1.32529706E-8-2.53537494E-12   1.35529195E4   1.96798606E1                   4
CH2COH                  H   3O   1C   2     G     300.0    5000.0  1408.0      1
   7.67940243E0  5.63609321E-3 -1.57911872E-6 2.14057857E-10-1.13615509E-14    2
   1.06531188E4  -1.40057705E1   1.85296033E0   2.2074177E-2 -1.93718642E-5    3
  8.89896145E-9-1.61108469E-12   1.23550086E4   1.62184602E1                   4
C3H3                    H   3C   3          G     200.0    6000.0  1000.0      1
    7.1422188E0  7.61902005E-3  -2.6745995E-6 4.24914801E-10-2.51475415E-14    2
   3.89087427E4  -1.25848436E1   1.35110927E0  3.27411223E-2 -4.73827135E-5    3
  3.76309808E-8-1.18540923E-11   4.01057783E4   1.52058924E1                   4
! Lamoureux et al. 2016
N                 120186N   1               G     300.0    5000.0  1000.0      1
     2.450268E0    1.066146E-4   -7.465337E-8   1.879652E-11  -1.025984E-15    2
     5.611604E4     4.448758E0     2.503071E0   -2.180018E-5    5.420529E-8    3
   -5.64756E-11   2.099904E-14      5.60989E4     4.167566E0                   4
NH                      H   1N   1          G    298.15    2000.0  1000.0      1
   3.38393047E0 -3.04401048E-4  1.07871576E-6-5.39749068E-10 8.56574985E-14    2
   4.18557586E4   2.60065696E0   3.49138447E0  2.48105072E-4 -1.22352658E-6    3
  1.97740127E-9-7.89210613E-13   4.17851517E4   1.83667301E0                   4
NH2                     H   2N   1          G    298.15    2000.0  1000.0      1
    3.8075146E0  1.74138848E-4  2.06281679E-6 -1.18308148E-9 2.00814234E-13    2
   2.12757238E4   1.57634407E0   4.02590054E0 -9.53251946E-4  4.13467348E-6    3
 -2.81816628E-9 6.73047183E-13    2.1244739E4  5.86219857E-1                   4
! Lamoureux 2016
NH3               121386H   3N   1          G     300.0    5000.0  1000.0      1
     2.461904E0    6.059166E-3   -2.004977E-6   3.136003E-10  -1.938317E-14    2
     -6.49327E3     7.472097E0     2.204352E0    1.011476E-2   -1.465265E-5    3
    1.447235E-8  -5.328509E-12    -6.525488E3     8.127138E0                   4
NNH                     H   1N   2          G    298.15    2000.0  1000.0      1
   2.78024159E0  4.51114118E-3 -1.98147075E-6 3.61161241E-10-1.55679242E-14    2
   2.93473063E4   9.91752869E0   3.86231284E0 -4.41898698E-4  6.38522141E-6    3
 -5.84138844E-9 1.69125822E-12   2.91621298E4   4.85334915E0                   4
! S Olivella A Sole J Phys Chem A 108 (2004) 11651   11663
! J Gimenez CL Rasmussen MU Alzueta P Marshall P Glarborg Proc. Combust. Inst. 32 (2009) 367-375
!NH3 subset
!---------------NOx Thermo data starts here------------------------------------
!Thermodata for NOx Chemistry from Lamoureux 2016 taken from this very work
!for the species that are in their mechanism; additional species included in this
!mechanism are adopted from Burcat thermochemistry data base and for other sources
!Y. Li, S.M. Sarathy, Int. J. Hydrogen Energy 45 (2020) 23624-23637.
N2H2                    H   2N   2          G    298.15    2000.0  1000.0      1
    2.3838838E0  6.63619559E-3 -1.81669068E-6-1.19497031E-10 9.31659255E-14    2
   2.34207532E4   1.06091658E1   4.14915878E0 -4.82013543E-3  2.19606525E-5    3
 -2.03662902E-8   6.253672E-12   2.32874597E4   3.19154222E0                   4
! Burcat/Goos 2017
N2H3              A05-05H   3N   2          G     200.0    6000.0  1000.0      1
   4.04483566E0  7.31130186E-3 -2.47625799E-6 3.83733021E-10-2.23107573E-14    2
   2.48098603E4   2.88423392E0   3.42125505E0   1.3490159E-3  2.23459071E-5    3
 -2.99727732E-8  1.2097897E-11   2.53056139E4   7.83176309E0                   4
! Burcat/Goos 2017
N2H4              L-5-90H   4N   2          G     200.0    6000.0  1000.0      1
   4.93957357E0  8.75017187E-3 -2.99399058E-6 4.67278418E-10-2.73068599E-14    2
   9.28265548E3  -2.69439772E0   3.83472149E0 -6.49129555E-4  3.76848463E-5    3
 -5.00709182E-8 2.03362064E-11   1.00893925E4    5.7527203E0                   4
! Burcat/Goos 2017
H2NN              T-9-11H   2N   2          G     200.0    6000.0  1000.0      1
    3.0590367E0  6.18382347E-3 -2.22171165E-6 3.58539206E-10-2.14532905E-14    2
   3.48530149E4   6.69893515E0   4.53204001E0 -7.32418578E-3  3.00803713E-5    3
 -3.04000551E-8 1.04700639E-11   3.49580003E4   1.51074195E0                   4
! Lamoureux et al. 2016
NO                121286O   1N   1          G     300.0    5000.0  1000.0      1
     3.245435E0    1.269138E-3    -5.01589E-7   9.169283E-11  -6.275419E-15    2
      9.80084E3     6.417294E0     3.376542E0    1.253063E-3   -3.302751E-6    3
     5.21781E-9  -2.446263E-12     9.817961E3      5.82959E0                   4
! Lamoureux et al. 2016
N2O               121286O   1N   2          G     300.0    5000.0  1000.0      1
     4.718977E0    2.873714E-3   -1.197496E-6   2.250552E-10  -1.575337E-14    2
     8.165811E3     -1.65725E0     2.543058E0    9.492193E-3   -9.792775E-6    3
    6.263845E-9  -1.901826E-12       8.7651E3     9.511222E0                   4
! Lamoureux et al. 2016
NO2               121286O   2N   1          G     300.0    5000.0  1000.0      1
     4.682859E0    2.462429E-3   -1.042259E-6   1.976902E-10  -1.391717E-14    2
     2.261292E3    9.885985E-1       2.6706E0    7.838501E-3   -8.063865E-6    3
    6.161715E-9   -2.32015E-12     2.896291E3     1.161207E1                   4
!see the comment
! Lamoureux et al. 2016
HNO               121286H   1O   1N   1     G     300.0    5000.0  1000.0      1
     3.615144E0    3.212486E-3   -1.260337E-6   2.267298E-10  -1.536236E-14    2
     1.066191E4     4.810264E0     2.784403E0    6.609646E-3   -9.300223E-6    3
     9.43798E-9  -3.753146E-12     1.091878E4     9.035629E0                   4
! Mathieu et al 2016; Fuel 182 (2016) 597   612
HON               LIUS93H   1O   1N   1     G     300.0    5000.0  1671.0      1
    3.7857743E0  2.86062728E-3 -1.02423922E-6 1.64463139E-10-9.77943616E-15    2
   2.93319701E4   3.12193293E0   3.33656431E0  2.67682939E-3  5.61801303E-7    3
 -1.11362279E-9 2.84076438E-13   2.95979751E4   5.96343188E0                   4
! Nitrous acid  ! Lamoureux et al. 2016
HONO              -31787H   1O   2N   1     G     300.0    5000.0  1000.0      1
     5.486893E0    4.218065E-3   -1.649143E-6   2.971877E-10  -2.021148E-14    2
    -1.126865E4    -2.997002E0     2.290413E0    1.409922E-2   -1.367872E-5    3
     7.49878E-9  -1.876905E-12    -1.043195E4     1.328077E1                   4
! Lamoureux et al. 2016
H2NO              102290H   2O   1N   1     G     300.0    4000.0  1500.0      1
     5.673346E0    2.298837E-3   -1.774446E-7  -1.103482E-10   1.859762E-14    2
     5.569325E3     -6.15354E0      2.53059E0    8.596035E-3    -5.47103E-6    3
    2.276249E-9  -4.648073E-13      6.86803E3     1.126651E1                   4
! Burcat/Goos 2017
HNOH              T11-11H   2O   1N   1     G     200.0    6000.0  1000.0      1
   3.98321933E0  4.88846374E-3 -1.65086637E-6 2.55371446E-10-1.48308561E-14    2
   1.05780106E4   3.62582838E0   3.95608248E0  -3.0261102E-3  2.56874396E-5    3
  -3.1564512E-8 1.24084574E-11    1.0919979E4   5.55950983E0                   4
! Burcat/Goos 2017
NH2OH             ATcT-AH   3O   1N   1     G     200.0    6000.0  1000.0      1
   3.88112502E0  8.15708448E-3 -2.82615576E-6 4.37930933E-10-2.52724604E-14    2
  -6.86018419E3   3.79156136E0   3.21016092E0  6.19671676E-3  1.10594948E-5    3
 -1.96668262E-8  8.8251659E-12  -6.58148481E3   7.93293571E0                   4
! RASMUSSEN 2008; Int J Chem Kinet 40: 454   480, 2008(ab initio CBS-QB3);
! H298=-9.80 kcal/mol
! S298=56.73 cal/mol/K [Sandia]
HNO2                    H   1O   2N   1     G     300.0    4000.0  1500.0      1
      6.47963E0    1.995274E-3   -1.740387E-7  -9.695872E-11    1.70148E-14    2
  -7.80950291E3  -1.06771518E1     1.934838E0    1.010036E-2   -4.964616E-6    3
    8.70112E-10  -2.324135E-15  -5.91571591E3   1.47282082E1                   4
! RASMUSSEN 2008; Int J Chem Kinet 40: 454   480, 2008
! H298 = -134.112+/-0.18 kJ/mol
! S298 = 63.76 cal/mol/K
HONO2             T-8-03H   1O   3N   1     G     200.0    6000.0  1000.0      1
   8.03098942E0  4.46958589E-3 -1.72459491E-6 2.91556153E-10-1.80102702E-14    2
  -1.92821685E4   -1.6261672E1   1.69329154E0  1.90167702E-2 -8.25176697E-6    3
 -6.06113827E-9 4.65236978E-12  -1.73882411E4   1.71839655E1                   4
! Burcat/Goos 2017
NO3               ATcT-AO   3N   1          G     200.0    6000.0  1000.0      1
   7.48347702E0  2.57772064E-3 -1.00945831E-6 1.72314063E-10-1.07154008E-14    2
   6.12990474E3  -1.41618136E1    2.1735933E0  1.04902685E-2  1.10472669E-5    3
 -2.81561867E-8  1.3658396E-11   7.81290905E3    1.4602209E1                   4
! Burcat/Goos 2017
HNO3              T-8-03H   1O   3N   1     G     200.0    6000.0  1000.0      1
   8.03098942E0  4.46958589E-3 -1.72459491E-6 2.91556153E-10-1.80102702E-14    2
  -1.93138183E4  -1.62616537E1   1.69329154E0  1.90167702E-2 -8.25176697E-6    3
 -6.06113827E-9 4.65236978E-12  -1.74198909E4   1.71839838E1                   4
! ********************************************************************************
! ********************************************************************************
! ***** HCN HNC CN HNCO HOCN HCNO NCO
! ********************************************************************************
! ********************************************************************************
!
! HCN (g) ATcT ver. 1.122, DHf298 = 129.275    0.091 kJ/mol - fit JAN17
HCN               ATcT3EH   1N   1C   1     G     200.0    6000.0  1000.0      1
   3.79525127E0  3.16330147E-3 -1.07316905E-6 1.67851828E-10-9.83948026E-15    2
   1.42249758E4   1.61357326E0    2.1057167E0  1.11841419E-2 -1.62402411E-5    3
  1.31663215E-8-4.17254301E-12   1.45427041E4   9.55501287E0                   4
!
! HNC (g) ATcT ver. 1.122, DHf298 = 192.39    0.38 kJ/mol - fit JAN17
HNC               ATcT3EH   1N   1C   1     G     200.0    6000.0  1000.0      1
   4.17272154E0  2.66569898E-3  -8.9230015E-7 1.37331005E-10-7.95545718E-15    2
   2.17977474E4  2.15196203E-1   2.36665269E0  1.49943353E-2 -3.03605651E-5    3
  2.99845678E-8-1.09094949E-11   2.19807517E4   7.87287988E0                   4
!
! CN (g) ATcT ver. 1.122, DHf298 = 440.01    0.15 kJ/mol - fit JAN17
CN                ATcT3EN   1C   1          G     200.0    6000.0  1000.0      1
   3.73483746E0  5.83996018E-5  2.90443997E-7 -6.7440381E-11 4.33381923E-15    2
   5.17018679E4    2.8516257E0   3.62920077E0 -1.07172764E-3  2.42398215E-6    3
-5.85516328E-10-3.75364456E-13   5.18668474E4   3.91231279E0                   4
!
HNCO              A-5-05H   1O   1N   1C   1G     200.0    6000.0  1000.0      1
   5.30045051E0  4.02250821E-3  -1.4096228E-6 2.23855342E-10-1.32499966E-14    2
  -1.61995274E4  -3.11770684E0   2.24009031E0  1.45600497E-2  -1.5435233E-5    3
  8.55535028E-9-1.79631611E-12  -1.54589951E4   1.21663775E1                   4
! E Goos A Burcat B Ruscic Ideal gas thermochemical database with updates from active thermochemical
! tables (ftp://ftp.technion.ac.il/pub/supported/aetdd/thermodynamics; mirrored at
! http://garfield.chem.elte.hu/burcat/burcat.html. Accessed July 2013.
!
HOCN              A-5-05H   1O   1N   1C   1G     200.0    6000.0  1000.0      1
   5.28767714E0  4.01746511E-3 -1.40407465E-6 2.22562614E-10-1.31562375E-14    2
  -3.77409807E3  -2.64470976E0   2.88943546E0  1.16487242E-2 -1.08005006E-5    3
  5.44138776E-9-1.06857286E-12  -3.15296691E3   9.51295652E0                   4
! E Goos A Burcat B Ruscic Ideal gas thermochemical database with updates from active thermochemical
! tables (ftp://ftp.technion.ac.il/pub/supported/aetdd/thermodynamics; mirrored at
! http://garfield.chem.elte.hu/burcat/burcat.html. Accessed July 2013.
!
HCNO              A-5-05H   1O   1N   1C   1G     200.0    6000.0  1000.0      1
   5.91979744E0    4.001146E-3 -1.42063343E-6 2.27569621E-10 -1.3550487E-14    2
   1.80385534E4  -8.26935223E0  6.07949401E-1  2.82182431E-2 -4.60451618E-5    3
  3.82559486E-8-1.23226501E-11   1.90714209E4   1.69199098E1                   4
! E Goos A Burcat B Ruscic Ideal gas thermochemical database with updates from active thermochemical
! tables (ftp://ftp.technion.ac.il/pub/supported/aetdd/thermodynamics; mirrored at
! http://garfield.chem.elte.hu/burcat/burcat.html. Accessed July 2013.
!
NCO               A-5-05O   1N   1C   1     G     200.0    6000.0  1000.0      1
   5.08064474E0  2.37443587E-3 -9.07098904E-7 1.52286713E-10-9.31009234E-15    2
   1.35781204E4  -2.15734434E0   2.77405177E0  9.24523481E-3 -9.91773586E-6    3
  6.68461303E-9-2.09520542E-12    1.4236957E4    9.7545867E0                   4
! E Goos A Burcat B Ruscic Ideal gas thermochemical database with updates from active thermochemical
! tables (ftp://ftp.technion.ac.il/pub/supported/aetdd/thermodynamics; mirrored at
! http://garfield.chem.elte.hu/burcat/burcat.html. Accessed December 2016.
!
! NCN (g) ATcT ver. 1.122, DHf298 = 450.80    0.68 kJ/mol - fit JAN17
NCN               ATcT3EN   2C   1          G     200.0    6000.0  1000.0      1
   5.65711708E0  1.64211333E-3 -6.37923438E-7 1.11209213E-10 -6.9932841E-15    2
   5.22097079E4   -6.1404995E0   3.00703195E0  8.38874126E-3 -6.90466542E-6    3
  2.84868816E-9-5.74273041E-13   5.30044793E4   7.78171011E0                   4
!
HNCN              T03-10H   1N   2C   1     G     200.0    6000.0  1000.0      1
   5.53846448E0  3.89054126E-3 -1.38104752E-6 2.21294765E-10-1.31827325E-14    2
   3.59635337E4  -3.39587098E0   3.06754311E0  1.06789939E-2 -7.96224305E-6    3
   2.5988339E-9-1.27057612E-13   3.66623508E4   9.41074995E0                   4
! SJK; prompt NO paper (2018)
!
! dummy!!!
NCNO                    O   1N   2C   1     G     200.0    3000.0  1000.0      1
   3.99574293E0  7.96025626E-6 -5.76602969E-9 1.80395948E-12 -2.0884688E-16    2
   3.09883543E4   8.58277153E0    3.9983346E0  8.03718093E-6 -1.56383867E-8    3
 1.20479659E-11-3.24908996E-15   3.09870621E4   8.56707356E0                   4
!
!DHf(0K) =    64.86 [kcal/mol], taken from SJK ANL0
!Q(T) from CCSD(T)/cc-pVTZ by SJK on  04Sep2017
NCNOH                   H   1O   1N   2C   1G     200.0    3000.0  1000.0      1
   4.69841132E0  2.16546382E-3 -1.81441347E-6 5.49591459E-10-5.89846481E-14    2
   2.48820341E4   4.04514611E0   3.45317867E0  4.03550194E-3  1.32583822E-6    3